[TITLE]

[JUNCTIONS]
;ID       Elev      Demand    Pattern   
1         69.7204   0.65262            
2         39.6821   0.146589           
3         66.8972   0.628762           
4         37.5285   1.14951            
5         61.4052   2.24503            
6         60.4534   0.591987           
7         55.7556   1.314              
8         12.5531   1.83809            
9         29.1075   2.4645             
10        77.2854   0.708938           
11        43.4277   1.00647            
12        53.3516   0.820697           
13        78.7984   1.34431            
14        14.1338   0.587357           
15        60.2731   0.533931           
16        59.2202   0.273112           
17        33.1496   1.72368            
18        57.9474   0.718138           
19        55.3028   0.454484           
20        60.1658   0.332424           
21        27.0517   0.399769           
22        44.6854   0.140261           
23        81.1861   1.28699            
24        11.012    1.18954            
25        25.7965   1.12177            
26        74.8456   0.708045           
27        36.2423   0.577423           
28        23.8442   1.83952            
29        57.5951   0.350591           
30        61.4921   2.46277            
31        62.7919   1.44079            
32        29.5074   1.04582            
33        28.0803   2.17379            
34        43.292    0.328729           
35        72.6152   0.376746           
36        65.8503   2.15394            
37        36.475    1.46858            
38        45.8925   2.42322            
39        60.4719   1.01672            
40        32.1509   0.488626           
41        58.2667   0.656016           
42        65.563    1.48895            
43        43.7173   0.25696            
44        46.7842   0.311179           
45        73.458    1.47563            
46        38.789    0.638137           
47        59.6825   2.46489            
48        72.8462   1.55455            
49        63.0693   1.25769            
50        18.5912   1.44695            
51        25.6201   2.04239            
52        49.2593   1.11996            
53        40.2999   0.680748           
54        15.5654   2.03473            
55        77.2194   0.965317           
56        54.6011   1.72526            
57        42.5046   0.848623           
58        49.5634   1.05887            
59        57.8578   1.19938            
60        34.6559   0.830446           
61        39.2879   2.05098            
62        41.1351   2.18685            
63        51.5244   1.82889            
64        63.4322   0.110846           
65        67.2047   1.80334            
66        55.937    0.437918           
67        79.8824   0.840255           
68        72.1216   2.06225            
69        40.6853   2.16592            
70        37.7843   2.39854            
71        11.6518   0.568204           
72        37.1855   1.2205             
73        24.7759   0.138045           
74        25.1891   1.54099            
75        70.7156   1.9783             
76        65.8104   1.60698            
77        45.3417   1.87078            
78        40.4749   0.901316           
79        52.3094   1.08577            
80        50.4059   2.3005             
81        78.5174   1.90161            
82        77.7262   0.692              
83        63.9193   0.131712           
84        25.6024   0.443868           
85        40.578    2.4592             
86        35.7765   1.85812            
87        54.3089   0.953199           
88        64.4907   0.885106           
89        36.1646   0.543441           
90        23.5714   1.28952            
91        44.7241   2.06145            
92        58.4217   1.37072            
93        44.5823   0.97006            
94        33.702    1.48837            
95        60.6356   2.44361            
96        46.598    1.8031             
97        33.3198   1.0128             
98        12.9169   1.52766            
99        49.0824   1.76128            
100       60.0813   0.158244           
101       48.0487   2.1863             
102       27.2878   1.67931            
103       68.9553   2.17877            
104       30.7946   1.87125            
105       40.8261   1.50162            
106       39.1302   2.32409            
107       82.2729   1.71904            
108       69.2515   1.93718            
109       57.9797   1.46552            
110       66.6733   2.25161            
111       15.8869   1.71611            
112       47.9271   1.24794            
113       86.8982   0.2287             
114       63.5919   1.84271            
115       26.4826   2.22056            
116       29.2625   2.33499            
117       75.2454   0.484042           
118       89.6226   0.953662           
119       26.1005   1.95501            
120       68.6706   2.4109             
121       38.7641   2.32854            
122       46.1529   2.23005            
123       43.6651   0.889687           
124       33.5706   1.60327            
125       36.8247   0.801922           
126       50.7869   0.985674           
127       78.0507   0.926032           
128       59.1978   0.952819           
129       54.131    0.497903           
130       63.2364   2.39478            
131       54.068    1.29059            
132       12.0121   1.47807            
133       42.0172   0.231058           
134       44.9711   1.36452            
135       31.2424   1.8869             
136       75.536    1.02314            
137       54.6356   2.37741            
138       52.6379   0.364092           
139       49.541    1.89437            
140       56.0531   1.29739            
141       28.9621   0.377544           
142       41.7059   1.18556            
143       31.2542   1.9271             
144       38.7773   2.20557            
145       85.71     2.00586            
146       55.4953   0.946566           
147       51.6877   1.30995            
148       56.9146   1.61697            
149       59.992    1.54187            
150       45.3916   1.08529            
151       55.6416   1.41167            
152       84.1823   2.22609            
153       32.6985   0.952468           
154       83.5369   0.424218           
155       59.918    0.367958           
156       44.3579   0.359292           
157       80.2527   0.105017           
158       19.74     1.65066            
159       58.7415   0.628428           
160       58.4217   2.43408            
161       26.8604   0.682933           
162       62.5475   0.737969           
163       30.6128   1.12893            
164       36.1937   1.53498            
165       44.5075   1.14235            
166       33.0229   1.44565            
167       49.8105   0.326261           
168       75.6366   1.77222            
169       72.3018   0.759421           
170       22.5932   0.645335           
171       56.492    1.42831            
172       46.12     0.238357           
173       63.727    2.20026            
174       33.7198   1.69749            
175       75.3762   1.29734            
176       84.654    1.80037            
177       70.4767   2.40472            
178       65.1117   2.06638            
179       42.7428   0.246586           
180       44.3146   1.20938            
181       59.0589   2.1332             
182       43.6006   1.73843            
183       59.7018   1.16436            
184       58.4814   0.250083           
185       42.0868   2.33148            
186       26.5887   0.754043           
187       76.5791   0.496426           
188       16.6209   1.03075            
189       73.2533   0.499702           
190       57.5893   0.449562           
191       50.006    1.3346             
192       40.0582   1.69533            
193       33.2886   0.126305           
194       47.7458   0.528449           
195       58.069    2.42274            
196       28.4567   1.53584            
197       44.1235   0.389424           
198       59.0849   2.02678            
199       60.9829   1.38237            
200       40.1924   0.632551           

[RESERVOIRS]
;ID       Head      Pattern   
R1         50        ;
R2         50        ;

[TANKS]
;ID       Elev      IniL      MinL      MaxL      Diam      MinV      VolC      

[PIPES]
;ID       Node1     Node2     Len       Diam      Rough     Minor     Status    
1         1         81        256.492   1e-06     130       0         open      
2         1         155       237.462   1e-06     130       0         open      
3         2         160       242.005   1e-06     130       0         open      
4         2         174       241.327   1e-06     130       0         open      
5         3         35        211.757   1e-06     130       0         open      
6         3         187       218.574   1e-06     130       0         open      
7         4         131       262.696   1e-06     130       0         open      
8         4         166       220.066   1e-06     130       0         open      
9         5         176       219.303   1e-06     130       0         open      
10        5         198       216.508   1e-06     130       0         open      
11        6         47        220.629   1e-06     130       0         open      
12        6         80        281.102   1e-06     130       0         open      
13        6         128       291.043   1e-06     130       0         open      
14        6         140       245.465   1e-06     130       0         open      
15        7         63        296.715   1e-06     130       0         open      
16        7         181       207.448   1e-06     130       0         open      
17        8         54        276.141   1e-06     130       0         open      
18        8         197       201.9     1e-06     130       0         open      
19        9         61        219.696   1e-06     130       0         open      
20        9         158       226.307   1e-06     130       0         open      
21        10        130       204.172   1e-06     130       0         open      
22        10        189       209.244   1e-06     130       0         open      
23        11        148       204.542   1e-06     130       0         open      
24        12        95        227.736   1e-06     130       0         open      
25        12        122       312.8     1e-06     130       0         open      
26        12        130       214.024   1e-06     130       0         open      
27        13        169       218.995   1e-06     130       0         open      
28        14        71        248.437   1e-06     130       0         open      
29        14        116       219.556   1e-06     130       0         open      
30        14        141       327.644   1e-06     130       0         open      
31        15        147       245.481   1e-06     130       0         open      
32        16        58        248.41    1e-06     130       0         open      
33        16        195       208.021   1e-06     130       0         open      
34        16        200       214.18    1e-06     130       0         open      
35        17        111       227.764   1e-06     130       0         open      
36        17        188       214.574   1e-06     130       0         open      
37        18        77        206.351   1e-06     130       0         open      
38        18        114       206.873   1e-06     130       0         open      
39        18        137       254.987   1e-06     130       0         open      
40        19        35        276.269   1e-06     130       0         open      
41        19        88        200.511   1e-06     130       0         open      
42        20        63        219.967   1e-06     130       0         open      
43        20        142       206.914   1e-06     130       0         open      
44        20        165       257.88    1e-06     130       0         open      
45        21        44        220.706   1e-06     130       0         open      
46        21        74        247.789   1e-06     130       0         open      
47        21        125       283.473   1e-06     130       0         open      
48        21        164       202.51    1e-06     130       0         open      
49        22        179       244.695   1e-06     130       0         open      
50        23        178       211.781   1e-06     130       0         open      
51        23        183       203.775   1e-06     130       0         open      
52        24        73        218.673   1e-06     130       0         open      
53        24        132       217.103   1e-06     130       0         open      
54        25        37        235.258   1e-06     130       0         open      
55        25        51        217.382   1e-06     130       0         open      
56        26        103       207.461   1e-06     130       0         open      
57        26        113       228.8     1e-06     130       0         open      
58        26        149       222.613   1e-06     130       0         open      
59        27        62        225.074   1e-06     130       0         open      
60        27        131       202.541   1e-06     130       0         open      
61        27        179       250.98    1e-06     130       0         open      
62        28        98        235.602   1e-06     130       0         open      
63        29        34        260.855   1e-06     130       0         open      
64        29        162       234.881   1e-06     130       0         open      
65        30        67        246.081   1e-06     130       0         open      
66        30        189       208.255   1e-06     130       0         open      
67        31        129       207.971   1e-06     130       0         open      
68        31        168       229.033   1e-06     130       0         open      
69        32        96        208.977   1e-06     130       0         open      
70        33        116       200.781   1e-06     130       0         open      
71        33        193       215.711   1e-06     130       0         open      
72        34        72        226.487   1e-06     130       0         open      
73        34        184       352.295   1e-06     130       0         open      
74        36        145       223.889   1e-06     130       0         open      
75        37        50        254.611   1e-06     130       0         open      
76        37        174       200.262   1e-06     130       0         open      
77        38        144       231.775   1e-06     130       0         open      
78        38        155       208.78    1e-06     130       0         open      
79        38        184       208.153   1e-06     130       0         open      
80        39        134       211.922   1e-06     130       0         open      
81        39        185       234.928   1e-06     130       0         open      
82        40        93        230.968   1e-06     130       0         open      
83        40        192       211.366   1e-06     130       0         open      
84        41        144       237.877   1e-06     130       0         open      
85        41        173       231.36    1e-06     130       0         open      
86        42        187       216.74    1e-06     130       0         open      
87        43        79        238.051   1e-06     130       0         open      
88        43        94        243.894   1e-06     130       0         open      
89        43        119       283.312   1e-06     130       0         open      
90        44        198       216.819   1e-06     130       0         open      
91        45        199       215.602   1e-06     130       0         open      
92        46        172       319.629   1e-06     130       0         open      
93        46        182       232.797   1e-06     130       0         open      
94        47        65        222.336   1e-06     130       0         open      
95        48        157       204.215   1e-06     130       0         open      
96        48        171       229.313   1e-06     130       0         open      
97        49        190       204.019   1e-06     130       0         open      
98        50        174       203.075   1e-06     130       0         open      
99        50        193       246.481   1e-06     130       0         open      
100       51        91        271.863   1e-06     130       0         open      
101       52        151       218.68    1e-06     130       0         open      
102       53        61        289.639   1e-06     130       0         open      
103       53        109       272.358   1e-06     130       0         open      
104       53        150       208.334   1e-06     130       0         open      
105       53        158       221.278   1e-06     130       0         open      
106       53        170       203.416   1e-06     130       0         open      
107       54        141       232.196   1e-06     130       0         open      
108       55        162       225.724   1e-06     130       0         open      
109       55        176       254.251   1e-06     130       0         open      
110       56        123       252.314   1e-06     130       0         open      
111       57        59        239.268   1e-06     130       0         open      
112       57        112       242.339   1e-06     130       0         open      
113       57        142       279.603   1e-06     130       0         open      
114       58        135       200.478   1e-06     130       0         open      
115       59        100       284.385   1e-06     130       0         open      
116       59        142       222.428   1e-06     130       0         open      
117       59        180       223.097   1e-06     130       0         open      
118       60        106       234.553   1e-06     130       0         open      
119       60        194       224.315   1e-06     130       0         open      
120       61        170       218.79    1e-06     130       0         open      
121       62        137       248.959   1e-06     130       0         open      
122       64        123       274.728   1e-06     130       0         open      
123       64        127       231.959   1e-06     130       0         open      
124       65        109       217.935   1e-06     130       0         open      
125       65        159       211.518   1e-06     130       0         open      
126       66        85        239.989   1e-06     130       0         open      
127       66        124       238.451   1e-06     130       0         open      
128       66        185       214.81    1e-06     130       0         open      
129       67        117       212.813   1e-06     130       0         open      
130       68        113       213.887   1e-06     130       0         open      
131       68        148       217.414   1e-06     130       0         open      
132       68        152       215.738   1e-06     130       0         open      
133       68        195       218.807   1e-06     130       0         open      
134       69        186       237.137   1e-06     130       0         open      
135       69        200       231.089   1e-06     130       0         open      
136       70        137       238.383   1e-06     130       0         open      
137       70        179       211.702   1e-06     130       0         open      
138       71        141       254.704   1e-06     130       0         open      
139       72        144       203.01    1e-06     130       0         open      
140       73        179       210.612   1e-06     130       0         open      
141       74        104       259.813   1e-06     130       0         open      
142       74        125       353.608   1e-06     130       0         open      
143       74        164       261.08    1e-06     130       0         open      
144       75        177       232.214   1e-06     130       0         open      
145       76        127       253.654   1e-06     130       0         open      
146       78        126       245.794   1e-06     130       0         open      
147       78        186       202.509   1e-06     130       0         open      
148       78        196       221.818   1e-06     130       0         open      
149       79        94        201.517   1e-06     130       0         open      
150       79        119       260.904   1e-06     130       0         open      
151       80        123       216.769   1e-06     130       0         open      
152       81        118       248.724   1e-06     130       0         open      
153       82        157       218.941   1e-06     130       0         open      
154       82        168       229.999   1e-06     130       0         open      
155       82        177       211.968   1e-06     130       0         open      
156       83        154       225.262   1e-06     130       0         open      
157       83        198       233.726   1e-06     130       0         open      
158       84        185       227.853   1e-06     130       0         open      
159       85        124       249.889   1e-06     130       0         open      
160       85        190       224.713   1e-06     130       0         open      
161       86        150       274.066   1e-06     130       0         open      
162       86        165       236.595   1e-06     130       0         open      
163       87        128       214.631   1e-06     130       0         open      
164       87        183       206.786   1e-06     130       0         open      
165       88        151       264.763   1e-06     130       0         open      
166       89        147       200.029   1e-06     130       0         open      
167       90        105       261.209   1e-06     130       0         open      
168       90        115       204.073   1e-06     130       0         open      
169       90        167       212.28    1e-06     130       0         open      
170       91        194       213.752   1e-06     130       0         open      
171       92        150       240.884   1e-06     130       0         open      
172       93        153       220.717   1e-06     130       0         open      
173       93        191       217.363   1e-06     130       0         open      
174       93        199       202.602   1e-06     130       0         open      
175       94        134       212.719   1e-06     130       0         open      
176       95        157       222.976   1e-06     130       0         open      
177       95        192       237.469   1e-06     130       0         open      
178       96        163       213.026   1e-06     130       0         open      
179       97        111       223.727   1e-06     130       0         open      
180       97        143       205.317   1e-06     130       0         open      
181       97        164       212.495   1e-06     130       0         open      
182       98        102       244.663   1e-06     130       0         open      
183       99        120       214.982   1e-06     130       0         open      
184       100       167       210.344   1e-06     130       0         open      
185       101       172       200.553   1e-06     130       0         open      
186       101       182       212.616   1e-06     130       0         open      
187       102       132       249.386   1e-06     130       0         open      
188       104       133       224.757   1e-06     130       0         open      
189       105       190       200.228   1e-06     130       0         open      
190       106       138       202.123   1e-06     130       0         open      
191       106       198       201.521   1e-06     130       0         open      
192       107       168       239.077   1e-06     130       0         open      
193       108       167       295.549   1e-06     130       0         open      
194       108       190       200.361   1e-06     130       0         open      
195       110       112       208.586   1e-06     130       0         open      
196       112       180       244.467   1e-06     130       0         open      
197       113       152       202.618   1e-06     130       0         open      
198       114       181       275.321   1e-06     130       0         open      
199       115       119       320.934   1e-06     130       0         open      
200       117       140       204.059   1e-06     130       0         open      
201       117       169       236.362   1e-06     130       0         open      
202       117       183       222.189   1e-06     130       0         open      
203       118       145       239.278   1e-06     130       0         open      
204       120       127       336.371   1e-06     130       0         open      
205       120       199       218.787   1e-06     130       0         open      
206       121       151       201.592   1e-06     130       0         open      
207       122       192       201.611   1e-06     130       0         open      
208       129       196       202.127   1e-06     130       0         open      
209       131       178       246.127   1e-06     130       0         open      
210       133       156       219.807   1e-06     130       0         open      
211       133       197       202.949   1e-06     130       0         open      
212       135       182       250.583   1e-06     130       0         open      
213       136       178       232.9     1e-06     130       0         open      
214       139       159       230.465   1e-06     130       0         open      
215       139       163       211.862   1e-06     130       0         open      
216       139       166       211.945   1e-06     130       0         open      
217       144       155       308.067   1e-06     130       0         open      
218       145       152       229.274   1e-06     130       0         open      
219       146       194       214.216   1e-06     130       0         open      
220       147       173       200.805   1e-06     130       0         open      
221       154       173       213.2     1e-06     130       0         open      
222       160       185       246.163   1e-06     130       0         open      
223       160       187       252.38    1e-06     130       0         open      
224       161       172       248.764   1e-06     130       0         open      
225       175       187       204.46    1e-06     130       0         open      
226       188       193       204.328   1e-06     130       0         open      

[PUMPS]
;ID       Node1     Node2     Para      
PU1         R1         9         Head 1    
PU2         R2         55        Head 1    
PU3         R1         9         Head 1    
PU4         R2         55        Head 1    
PU5         R1         9         Head 1    
PU6         R2         55        Head 1     

[VALVES]
;ID       Node1     Node2     Diam      Type      Sett      Minor     

[TAGS]

[DEMANDS]
;Junc     Demand    Pattern   Categ     

[STATUS]
;ID       StSe      
PU1         Open      
PU2         Open      
PU3         Open      
PU4         Open      
PU5         Open      
PU6         Open         

[PATTERNS]

[CURVES]
;ID       X         Y         
;PUMP: PUMP: 
 1               	0.0000      	70.0000
 1               	60.0000     	50.0000
 1               	100.0000    	30.0000

[CONTROLS]

[RULES]

[ENERGY]

[EMITTERS]
;Junc     Coeff     

[QUALITY]
;Node     IniQ      

[SOURCES]
;Node     Type      Qual      Pattern   

[REACTIONS]

[MIXING]
;Tank     Model     

[TIMES]
Duration                 0:00                    
Hydraulic Timestep       1:00                     
Quality Timestep         0:05                     
Pattern Timestep         1:00                     
Pattern Start            0:00                     
Report Timestep          1:00                     
Report Start             0:00                     
Start ClockTime          0:00                     
Statistic                None                     

[REPORT]
Status                   No                       
Summary                  No                       
Page                     0                        
MESSAGES                 NO

[OPTIONS]
Units                    LPS                      
Headloss                 H-W                      
Specific Gravity         1.0000                   
Viscosity                1.0000                   
Trials                   100                      
Accuracy                 0.00100                   
CHECKFREQ                2                        
MAXCHECK                 10                       
Unbalanced               Continue 10              
Pattern                  1                        
Demand Multiplier        1                        
Emitter Exponent         0.5                      
Quality                  AGE mg/L                 
Diffusivity              1                        
Tolerance                0.01                     

[COORDINATES]
;Node               X-Coord             Y-Coord             
1                   874.112             2956.46             
2                   1821.59             1232.15             
3                   1536.5              647.284             
4                   2747.71             1927.34             
5                   522.582             2137.86             
6                   3206.05             2292.15             
7                   2756.28             1193.38             
8                   764.399             1001.73             
9                   3915.43             2007.91             
10                  2230.85             3023.44             
11                  2076.67             3263.14             
12                  2578.15             3161.98             
13                  3228.21             2658.54             