[TITLE]

[JUNCTIONS]
;ID       Elev      Demand    Pattern   
1         15.3766   0.243218           
2         40.948    1.90233            
3         57.8177   1.08212            
4         61.8821   0.889576           
5         74.519    2.43236            
6         52.5498   2.23737            
7         85.3578   2.04494            
8         41.2272   0.366299           
9         34.2663   1.54985            
10        81.191    1.08769            
11        43.6153   1.26125            
12        81.5585   0.120283           
13        72.5959   0.713574           
14        15.2202   1.37304            
15        49.297    0.395116           
16        87.9951   0.954359           
17        31.6784   1.68106            
18        69.0981   2.15103            
19        45.735    0.367875           
20        48.6413   1.6099             
21        35.5836   1.80882            
22        20.0326   0.126567           
23        50.0744   1.36245            
24        53.4779   0.331523           
25        58.2383   2.0871             
26        52.3442   2.15101            
27        36.5647   1.64713            
28        47.9974   2.46089            
29        81.3935   2.44634            
30        48.2796   0.455471           
31        22.4433   2.38463            
32        21.6475   1.29578            
33        15.1014   0.629057           
34        69.9188   0.685823           
35        79.526    1.26786            
36        50.8793   0.22859            
37        60.6743   1.58619            
38        48.3499   1.25765            
39        77.6801   1.72959            
40        39.0978   1.64903            
41        82.4593   0.36491            
42        78.2954   1.07161            
43        29.7391   1.28502            
44        24.9678   0.804904           
45        63.6488   0.791425           
46        59.0477   1.39305            
47        78.5605   0.677863           
48        48.767    0.539869           
49        42.6355   2.17513            
50        16.0922   1.24795            
51        57.3406   1.06181            
52        64.3105   2.40557            
53        69.8893   2.11623            
54        58.0164   0.485632           
55        74.2095   1.91944            
56        27.1118   2.30289            
57        66.5772   1.51155            
58        70.0154   1.5534             
59        44.377    1.92984            
60        77.7932   1.03886            
61        35.2867   0.514284           
62        20.415    2.14966            
63        39.4035   2.22465            
64        48.8877   0.75923            
65        78.7584   0.529454           
66        31.7337   0.730016           
67        25.6246   0.123503           
68        58.7602   2.05336            
69        86.199    2.38966            
70        29.7902   1.59484            
71        15.8471   0.402177           
72        49.7873   1.62536            
73        63.8133   0.758427           
74        23.2436   0.509437           
75        68.788    1.60331            
76        55.9848   0.770527           
77        73.4053   1.67501            
78        40.1491   0.665549           
79        46.6514   2.41094            
80        81.189    2.497              
81        61.4687   1.658              
82        66.063    0.120918           
83        32.7161   0.476038           
84        54.2127   0.516701           
85        34.1927   1.34008            
86        63.6179   1.49653            
87        43.8014   1.98235            
88        38.9608   2.05279            
89        41.154    0.834126           
90        51.9898   0.558514           
91        68.8546   0.424476           
92        54.0384   0.757113           
93        11.1863   1.3995             
94        71.939    0.411293           
95        36.9376   1.23994            
96        74.2806   0.60658            
97        71.4635   0.713959           
98        70.4303   0.791909           
99        15.8529   0.910273           
100       22.6499   0.424601           
101       64.1453   1.34054            
102       76.8409   2.01379            
103       15.4131   1.49154            
104       81.4392   1.81568            
105       80.4985   2.05777            
106       53.2225   1.28781            
107       82.7334   2.39677            
108       68.1188   1.89441            
109       56.8393   1.86564            
110       25.1179   2.13818            
111       25.1683   2.2086             
112       62.8412   0.565221           
113       42.6661   1.55833            
114       55.6598   1.66403            
115       45.9484   1.14594            
116       55.1688   1.1332             
117       44.152    1.71633            
118       67.0217   0.698695           
119       64.9425   0.734972           
120       71.7233   2.29117            
121       85.2487   1.10146            
122       43.2978   1.67589            
123       49.6815   1.53633            
124       80.9415   1.51539            
125       32.3631   1.76408            
126       38.6504   1.89516            
127       44.3986   0.37418            
128       63.5949   1.55385            
129       54.292    1.53838            
130       17.8232   2.04606            
131       33.9454   1.73533            
132       82.6357   1.9198             
133       22.0802   1.59331            
134       46.0977   1.08021            
135       33.6911   0.817432           
136       48.0956   1.51048            
137       22.4851   1.51773            
138       70.2843   2.10057            
139       33.5861   1.05148            
140       14.9023   2.12083            
141       35.2192   2.45456            
142       32.5663   0.662256           
143       61.4628   1.01628            
144       70.7545   0.973417           
145       73.586    2.01281            
146       51.7814   2.21585            
147       44.1777   0.261805           
148       43.1369   0.674368           
149       43.8955   0.415078           
150       35.4323   2.07999            
151       75.9161   0.64447            
152       63.5678   1.06693            
153       75.1368   0.151019           
154       30.7147   1.58723            
155       36.6744   2.37215            
156       50.765    1.64616            
157       11.4595   2.23785            
158       34.3001   0.290207           
159       52.8298   1.84163            
160       68.5382   1.75971            
161       63.6746   1.72066            
162       70.3758   0.354355           
163       59.4148   0.511046           
164       25.7384   2.21196            
165       33.1959   0.997302           
166       73.6271   1.15508            
167       22.3856   1.29899            
168       51.2245   0.392487           
169       53.0077   2.02798            
170       86.0874   1.67605            
171       40.3526   2.19387            
172       37.44     1.45744            
173       76.1332   0.531098           
174       58.2473   0.612728           
175       84.7235   0.864649           
176       71.8094   1.18146            
177       57.9132   0.614212           
178       22.4142   2.49076            
179       82.9239   0.739913           
180       69.5444   1.2025             
181       83.1653   1.81386            
182       45.3323   0.253486           
183       54.6628   1.42959            
184       63.5763   2.06601            
185       37.3166   2.06593            
186       25.9657   0.350196           
187       50.6494   0.528791           
188       32.4      1.23726            
189       34.572    0.717501           
190       61.8332   0.65055            
191       69.1491   0.520517           
192       34.762    2.2545             
193       58.7603   2.33641            
194       74.5659   0.89211            
195       46.903    0.918398           
196       34.3384   2.02198            
197       67.5111   0.116147           
198       51.8421   0.189064           
199       63.9729   1.66706            
200       88.3472   0.722899           
201       76.7474   0.683397           
202       50.1191   2.30971            
203       52.0284   0.212111           
204       60.9819   1.07995            
205       75.7752   1.67688            
206       23.5237   2.27525            
207       70.8792   0.953103           
208       61.2203   2.02049            
209       51.0563   1.30566            
210       58.7682   1.64902            
211       73.8317   0.248797           
212       58.006    0.584996           
213       54.3744   1.21104            
214       35.4972   1.54175            
215       60.3547   2.09021            
216       53.417    1.43128            
217       55.2372   2.21766            
218       16.6085   1.85363            
219       72.2085   0.388103           
220       59.3111   1.80068            
221       51.7536   0.526694           
222       62.0169   1.23332            
223       59.4545   0.9064             
224       59.1287   2.21942            
225       89.6871   0.717463           
226       69.7259   0.341777           
227       19.8965   1.80072            
228       58.2076   0.938426           
229       45.0503   0.909407           
230       56.2692   0.259928           
231       67.6883   0.844651           
232       61.8337   0.658281           
233       78.2279   1.08411            
234       35.874    1.34608            
235       76.6786   1.68066            
236       48.0032   1.58255            
237       26.7374   1.55615            
238       64.6168   1.01973            
239       88.8643   0.378856           
240       35.1277   2.36827            
241       24.4012   2.0786             
242       70.8595   0.23935            
243       34.9274   0.89309            
244       17.3988   0.984763           
245       53.4258   0.396027           
246       60.8426   2.05697            
247       34.7897   0.249962           
248       30.6465   0.294203           
249       72.4885   0.554777           
250       87.1288   2.20266            
251       66.7179   2.09582            
252       85.7137   0.271839           
253       69.4764   1.38379            
254       73.3896   1.14902            
255       71.2815   2.1036             
256       52.9531   1.56539            
257       78.9179   1.6349             
258       43.7777   2.30083            
259       39.3253   0.102308           
260       43.7316   2.26014            
261       73.1797   0.54865            
262       54.7913   0.932386           
263       80.0223   1.04176            
264       22.5089   0.197331           
265       70.679    0.512796           
266       69.6929   0.463254           
267       71.4077   1.70715            
268       44.9685   1.24906            
269       52.6988   2.08545            
270       89.9284   1.57834            
271       24.3346   1.59005            
272       64.5564   1.424              
273       24.9543   0.270495           
274       89.8615   1.69235            
275       87.3249   2.42714            
276       37.6715   0.126751           
277       64.1134   1.04531            
278       77.873    1.08982            
279       89.5241   0.302382           
280       18.8093   1.95892            
281       79.0928   1.68676            
282       39.2264   1.58195            
283       19.8769   0.364815           
284       50.6801   1.97134            
285       38.3784   2.49869            
286       35.8301   2.07947            
287       67.2055   0.829336           
288       28.7768   1.13629            
289       43.9121   2.01981            
290       69.7334   0.811336           
291       65.0662   1.67254            
292       64.0929   2.30502            
293       33.5694   2.47627            
294       66.1974   1.17884            
295       40.59     0.947299           
296       45.9178   1.5579             
297       82.7365   2.1612             
298       59.2071   0.375447           
299       83.2254   1.3203             
300       68.5368   1.56184            

[RESERVOIRS]
;ID       Head      Pattern   
R1         50        ;

[TANKS]
;ID       Elev      IniL      MinL      MaxL      Diam      MinV      VolC      

[PIPES]
;ID       Node1     Node2     Len       Diam      Rough     Minor     Status    
1         1         141       386.025   1e-06     130       0         open      
2         2         64        318.591   1e-06     130       0         open      
3         2         203       321.007   1e-06     130       0         open      
4         2         273       276.75    1e-06     130       0         open      
5         3         76        364.232   1e-06     130       0         open      
6         3         143       337.556   1e-06     130       0         open      
7         3         262       235.205   1e-06     130       0         open      
8         4         223       338.552   1e-06     130       0         open      
9         4         263       265.043   1e-06     130       0         open      
10        5         65        227.17    1e-06     130       0         open      
11        5         112       292.041   1e-06     130       0         open      
12        5         219       391.072   1e-06     130       0         open      
13        6         86        299.017   1e-06     130       0         open      
14        6         209       242.886   1e-06     130       0         open      
15        6         268       253.78    1e-06     130       0         open      
16        7         69        438.751   1e-06     130       0         open      
17        7         107       572.906   1e-06     130       0         open      
18        7         153       257.82    1e-06     130       0         open      
19        8         95        228.683   1e-06     130       0         open      
20        8         210       204.32    1e-06     130       0         open      
21        8         247       244.975   1e-06     130       0         open      
22        9         74        443.597   1e-06     130       0         open      
23        9         87        404.386   1e-06     130       0         open      
24        9         115       252.232   1e-06     130       0         open      
25        10        251       250.299   1e-06     130       0         open      
26        11        46        297.692   1e-06     130       0         open      
27        11        88        251.116   1e-06     130       0         open      
28        11        248       252.591   1e-06     130       0         open      
29        11        271       231.763   1e-06     130       0         open      
30        12        238       488.177   1e-06     130       0         open      
31        13        114       228.077   1e-06     130       0         open      
32        14        50        228.871   1e-06     130       0         open      
33        14        280       305.018   1e-06     130       0         open      
34        15        63        346.827   1e-06     130       0         open      
35        15        131       227.399   1e-06     130       0         open      
36        15        141       213.378   1e-06     130       0         open      
37        16        47        294.781   1e-06     130       0         open      
38        16        242       302.821   1e-06     130       0         open      
39        17        99        368.313   1e-06     130       0         open      
40        17        258       292.03    1e-06     130       0         open      
41        18        129       255.575   1e-06     130       0         open      
42        18        163       345.185   1e-06     130       0         open      
43        19        171       209.26    1e-06     130       0         open      
44        19        243       275.811   1e-06     130       0         open      
45        20        23        440.462   1e-06     130       0         open      
46        20        276       265.004   1e-06     130       0         open      
47        21        113       230.375   1e-06     130       0         open      
48        21        218       300.692   1e-06     130       0         open      
49        22        158       341.976   1e-06     130       0         open      
50        22        240       217.617   1e-06     130       0         open      
51        23        163       256.146   1e-06     130       0         open      
52        23        208       273.812   1e-06     130       0         open      
53        24        109       383.779   1e-06     130       0         open      
54        24        156       266.484   1e-06     130       0         open      
55        24        180       318.604   1e-06     130       0         open      
56        24        253       296.263   1e-06     130       0         open      
57        25        36        441.721   1e-06     130       0         open      
58        25        57        272.862   1e-06     130       0         open      
59        25        166       249.574   1e-06     130       0         open      
60        26        259       251.894   1e-06     130       0         open      
61        26        293       284.579   1e-06     130       0         open      
62        27        123       255.474   1e-06     130       0         open      
63        27        149       289.524   1e-06     130       0         open      
64        28        169       286.87    1e-06     130       0         open      
65        28        276       202.773   1e-06     130       0         open      
66        29        176       343.693   1e-06     130       0         open      
67        29        219       248.625   1e-06     130       0         open      
68        30        240       252.221   1e-06     130       0         open      
69        30        284       267.792   1e-06     130       0         open      
70        31        78        236.691   1e-06     130       0         open      
71        31        172       318.244   1e-06     130       0         open      
72        32        33        293.532   1e-06     130       0         open      
73        32        100       218.202   1e-06     130       0         open      
74        32        244       346.567   1e-06     130       0         open      
75        33        237       381.738   1e-06     130       0         open      
76        34        108       347.37    1e-06     130       0         open      
77        34        190       353.65    1e-06     130       0         open      
78        34        221       363.816   1e-06     130       0         open      
79        34        224       281.856   1e-06     130       0         open      
80        35        225       373.494   1e-06     130       0         open      
81        35        270       225.336   1e-06     130       0         open      
82        36        196       378.071   1e-06     130       0         open      
83        37        46        461.718   1e-06     130       0         open      
84        37        182       296.847   1e-06     130       0         open      
85        37        212       200.361   1e-06     130       0         open      
86        38        90        330.803   1e-06     130       0         open      
87        38        221       321.797   1e-06     130       0         open      
88        38        236       369.018   1e-06     130       0         open      
89        39        170       264.701   1e-06     130       0         open      
90        39        226       247.083   1e-06     130       0         open      
91        40        178       285.095   1e-06     130       0         open      
92        40        286       239.559   1e-06     130       0         open      
93        40        293       276.215   1e-06     130       0         open      
94        41        138       558.974   1e-06     130       0         open      
95        41        149       533.664   1e-06     130       0         open      
96        41        201       522.025   1e-06     130       0         open      
97        42        69        349.237   1e-06     130       0         open      
98        42        152       411.639   1e-06     130       0         open      
99        43        137       369.328   1e-06     130       0         open      
100       43        189       257.999   1e-06     130       0         open      
101       43        289       240.196   1e-06     130       0         open      
102       44        289       291.494   1e-06     130       0         open      
103       45        47        410.598   1e-06     130       0         open      
104       45        146       202.46    1e-06     130       0         open      
105       45        281       237.063   1e-06     130       0         open      
106       47        184       231.031   1e-06     130       0         open      
107       48        139       293.097   1e-06     130       0         open      
108       48        204       375.845   1e-06     130       0         open      
109       48        288       432.605   1e-06     130       0         open      
110       49        122       208.301   1e-06     130       0         open      
111       49        285       300.037   1e-06     130       0         open      
112       50        240       389.901   1e-06     130       0         open      
113       51        169       302.472   1e-06     130       0         open      
114       52        107       343.153   1e-06     130       0         open      
115       52        152       320.966   1e-06     130       0         open      
116       52        272       442.064   1e-06     130       0         open      
117       53        300       363.922   1e-06     130       0         open      
118       54        78        277.878   1e-06     130       0         open      
119       54        223       320.742   1e-06     130       0         open      
120       55        252       457.218   1e-06     130       0         open      
121       55        266       200.284   1e-06     130       0         open      
122       56        93        263.933   1e-06     130       0         open      
123       56        150       279.684   1e-06     130       0         open      
124       57        222       298.972   1e-06     130       0         open      
125       58        98        702.836   1e-06     130       0         open      
126       58        257       341.809   1e-06     130       0         open      
127       59        155       463.153   1e-06     130       0         open      
128       59        220       304.532   1e-06     130       0         open      
129       60        223       218.171   1e-06     130       0         open      
130       60        250       300.321   1e-06     130       0         open      
131       61        95        258.485   1e-06     130       0         open      
132       61        264       257.418   1e-06     130       0         open      
133       62        66        228.651   1e-06     130       0         open      
134       62        296       235.156   1e-06     130       0         open      
135       63        167       238.492   1e-06     130       0         open      
136       64        136       349.969   1e-06     130       0         open      
137       65        291       231.567   1e-06     130       0         open      
138       66        142       402.169   1e-06     130       0         open      
139       66        202       327.763   1e-06     130       0         open      
140       67        140       346.58    1e-06     130       0         open      
141       67        142       211.019   1e-06     130       0         open      
142       67        186       257.09    1e-06     130       0         open      
143       68        92        256.895   1e-06     130       0         open      
144       68        198       459.667   1e-06     130       0         open      
145       69        80        226.399   1e-06     130       0         open      
146       69        153       377.14    1e-06     130       0         open      
147       70        89        312.833   1e-06     130       0         open      
148       70        117       398.785   1e-06     130       0         open      
149       71        280       392.22    1e-06     130       0         open      
150       72        113       249.212   1e-06     130       0         open      
151       72        246       264.661   1e-06     130       0         open      
152       73        82        264.45    1e-06     130       0         open      
153       73        128       380.259   1e-06     130       0         open      
154       73        168       322.565   1e-06     130       0         open      
155       74        165       246.367   1e-06     130       0         open      
156       74        227       593.186   1e-06     130       0         open      
157       75        232       253.185   1e-06     130       0         open      
158       76        127       363.423   1e-06     130       0         open      
159       77        211       261.45    1e-06     130       0         open      
160       77        282       626.851   1e-06     130       0         open      
161       79        143       274.665   1e-06     130       0         open      
162       80        119       300.773   1e-06     130       0         open      
163       81        116       346.157   1e-06     130       0         open      
164       82        123       455.248   1e-06     130       0         open      
165       82        145       253.723   1e-06     130       0         open      
166       83        130       429.472   1e-06     130       0         open      
167       83        258       361.416   1e-06     130       0         open      
168       83        285       464.027   1e-06     130       0         open      
169       84        234       333.431   1e-06     130       0         open      
170       84        260       436.614   1e-06     130       0         open      
171       84        291       326.517   1e-06     130       0         open      
172       85        89        219.573   1e-06     130       0         open      
173       86        268       371.299   1e-06     130       0         open      
174       87        260       439.414   1e-06     130       0         open      
175       88        285       480.575   1e-06     130       0         open      
176       90        135       461.041   1e-06     130       0         open      
177       90        236       605.174   1e-06     130       0         open      
178       91        124       259.085   1e-06     130       0         open      
179       91        161       231.993   1e-06     130       0         open      
180       91        266       252.912   1e-06     130       0         open      
181       92        292       248.595   1e-06     130       0         open      
182       93        137       252.985   1e-06     130       0         open      
183       94        104       350.153   1e-06     130       0         open      
184       95        136       394.311   1e-06     130       0         open      
185       95        247       246.666   1e-06     130       0         open      
186       96        138       294.456   1e-06     130       0         open      
187       96        255       324.343   1e-06     130       0         open      
188       97        144       399.105   1e-06     130       0         open      
189       97        175       356.661   1e-06     130       0         open      
190       97        200       243.851   1e-06     130       0         open      
191       97        297       421.174   1e-06     130       0         open      
192       98        251       513.033   1e-06     130       0         open      
193       99        157       275.618   1e-06     130       0         open      
194       100       157       383.157   1e-06     130       0         open      
195       100       167       381.468   1e-06     130       0         open      
196       101       128       317.51    1e-06     130       0         open      
197       101       138       382.976   1e-06     130       0         open      
198       102       267       276.33    1e-06     130       0         open      
199       103       139       356.723   1e-06     130       0         open      
200       103       241       404.614   1e-06     130       0         open      
201       104       274       329.608   1e-06     130       0         open      
202       105       238       520.933   1e-06     130       0         open      
203       105       257       467.298   1e-06     130       0         open      
204       106       126       372.273   1e-06     130       0         open      
205       106       176       258.282   1e-06     130       0         open      
206       106       259       369.496   1e-06     130       0         open      
207       107       272       289.379   1e-06     130       0         open      
208       108       190       235.933   1e-06     130       0         open      
209       108       224       441.189   1e-06     130       0         open      
210       109       180       298.009   1e-06     130       0         open      
211       109       261       249.202   1e-06     130       0         open      
212       110       192       332.435   1e-06     130       0         open      
213       110       227       215.417   1e-06     130       0         open      
214       111       214       240.507   1e-06     130       0         open      
215       112       233       217.738   1e-06     130       0         open      
216       113       114       254.841   1e-06     130       0         open      
217       115       216       361.146   1e-06     130       0         open      
218       116       159       343.682   1e-06     130       0         open      