[TITLE]

[JUNCTIONS]
;ID       Elev      Demand    Pattern   
1         27.1029   0.431786           
2         12.9353   2.07054            
3         28.1422   1.38188            
4         72.4763   0.696563           
5         70.6192   0.269423           
6         18.8053   1.68446            
7         57.1089   0.75477            
8         86.9121   1.37674            
9         79.7045   1.7892             
10        75.729    1.16381            
11        31.1366   0.559186           
12        77.7314   0.726394           
13        13.2024   0.888052           
14        30.452    0.703322           
15        39.5158   1.87296            
16        48.9677   1.9102             
17        22.6329   2.34158            
18        72.3548   0.511976           
19        32.2737   2.20741            
20        40.0345   0.71657            
21        66.3469   0.476445           
22        19.383    2.30633            
23        89.8577   1.26285            
24        12.7955   0.473833           
25        14.6918   0.427015           
26        27.3083   2.24086            
27        37.7669   1.35643            
28        49.7253   1.40279            
29        57.5473   0.110802           
30        47.9613   0.632693           
31        31.6492   1.57697            
32        40.3423   0.123843           
33        38.9129   1.36494            
34        48.7351   1.27599            
35        60.3903   1.89317            
36        82.5846   1.54261            
37        39.0655   1.90272            
38        73.9894   2.47251            
39        46.9425   1.28122            
40        60.9769   1.37892            
41        62.727    1.66218            
42        38.4629   0.527707           
43        38.6889   2.15983            
44        47.6893   0.571514           
45        31.0391   1.89513            
46        65.4012   1.25177            
47        65.7798   1.58304            
48        76.9437   1.15986            
49        38.4111   0.867395           
50        31.4155   1.69209            
51        23.2822   2.25492            
52        26.4686   1.98673            
53        75.5118   0.330347           
54        38.9319   2.1822             
55        24.9131   1.15435            
56        33.5781   0.581246           
57        54.4179   0.257246           
58        57.858    2.08641            
59        50.9858   0.546304           
60        40.8072   1.3039             
61        34.9981   1.88887            
62        14.4235   1.64786            
63        43.5762   1.30987            
64        27.1728   1.589              
65        30.9342   0.21396            
66        28.8126   1.41624            
67        23.0349   1.60638            
68        52.4468   1.82575            
69        34.9589   0.338181           
70        86.9972   0.936497           
71        56.8683   1.72033            
72        89.1091   0.656881           
73        36.2803   0.81181            
74        39.2177   1.9496             
75        41.6845   0.977412           
76        52.4567   0.751939           
77        39.2063   0.507286           
78        37.4844   2.31484            
79        39.4258   0.219032           
80        58.6763   0.601492           
81        37.56     1.18681            
82        50.7665   0.808788           
83        55.6683   1.21452            
84        51.4756   1.13647            
85        69.1675   1.68791            
86        17.3858   1.98963            
87        43.9664   1.48075            
88        78.3449   1.52053            
89        79.8451   0.676391           
90        25.4912   1.36354            
91        37.3562   2.28633            
92        82.1977   0.168991           
93        71.4756   1.93406            
94        87.8723   0.966727           
95        79.2187   1.99721            
96        30.9283   0.981293           
97        85.3089   1.04735            
98        33.231    2.20017            
99        42.5571   1.4073             
100       35.4264   0.77775            
101       66.4507   0.738118           
102       22.5832   1.28276            
103       49.8693   2.24293            
104       20.983    0.34839            
105       10.1179   1.90523            
106       87.4091   1.2193             
107       40.7071   2.44535            
108       34.3911   0.863736           
109       67.3667   0.99031            
110       75.5292   2.09271            
111       86.6853   1.12553            
112       64.3752   0.326788           
113       87.598    1.56347            
114       72.7813   1.78832            
115       13.6001   0.422132           
116       15.0871   0.43179            
117       59.6873   1.51363            
118       40.9742   1.39501            
119       45.579    1.84564            
120       54.7924   2.12889            
121       45.5222   1.66157            
122       31.9019   1.01055            
123       22.4188   0.491031           
124       79.7986   0.910125           
125       50.9658   1.50592            
126       11.9061   0.582563           
127       25.6493   2.39073            
128       33.4074   2.41879            
129       22.9368   0.376203           
130       78.4575   2.10432            
131       54.0295   2.05229            
132       16.4521   2.11682            
133       87.9697   0.847303           
134       39.2471   0.233323           
135       43.9603   1.21081            
136       43.5548   0.541274           
137       43.8162   1.02884            
138       11.3343   0.995503           
139       82.4552   2.23914            
140       70.6079   1.85979            
141       41.9675   1.00892            
142       45.7235   1.15031            
143       31.9707   0.975418           
144       79.319    1.32828            
145       88.2756   0.76263            
146       80.7884   0.333233           
147       28.161    1.41143            
148       82.2035   1.31378            
149       16.4695   0.536608           
150       25.6575   0.773593           
151       52.5953   0.847826           
152       54.5486   1.89216            
153       33.5949   2.14681            
154       53.8021   0.687949           
155       86.5606   2.22832            
156       65.4654   1.11973            
157       28.8822   0.94655            
158       26.5994   0.128349           
159       21.3849   1.08407            
160       23.8512   2.35716            
161       41.1112   1.19749            
162       44.259    1.83603            
163       64.2871   1.32367            
164       34.8074   2.39623            
165       81.5955   2.4657             
166       57.316    0.959182           
167       49.0943   0.351563           
168       25.8989   0.565062           
169       29.3343   1.28299            
170       48.6961   1.68018            
171       24.1158   0.574146           
172       56.0834   2.18038            
173       71.3181   1.06515            
174       51.0225   0.786633           
175       25.0379   0.469193           
176       42.8594   2.13921            
177       37.6814   0.570376           
178       41.1746   1.52893            
179       37.2547   0.207321           
180       56.0012   1.19027            
181       52.2936   2.41273            
182       22.9217   0.138956           
183       60.1167   2.22483            
184       21.2163   1.58346            
185       67.5344   0.868836           
186       15.3704   2.0594             
187       30.9034   1.13931            
188       69.5886   1.02671            
189       49.4861   1.49182            
190       13.0858   0.229784           
191       24.2035   0.919489           
192       13.7394   0.276352           
193       41.4212   1.08033            
194       19.1933   1.04998            
195       10.1468   2.35682            
196       33.6245   1.8359             
197       74.2922   0.646005           
198       39.9681   1.39214            
199       33.5561   1.96623            
200       35.3466   1.95462            
201       63.8784   1.89755            
202       25.6422   0.650978           
203       50.6405   0.998252           
204       13.6313   0.631398           
205       67.4726   0.753297           
206       78.4572   1.67111            
207       35.2325   1.26111            
208       88.1186   1.96878            
209       29.0991   1.36166            
210       37.5258   0.63036            
211       12.1889   2.40091            
212       33.1775   0.531737           
213       39.074    2.40204            
214       59.2205   2.22929            
215       24.3087   0.484609           
216       18.2436   0.16265            
217       41.4701   2.09932            
218       43.2816   2.39546            
219       53.0346   1.61451            
220       12.9498   1.11169            
221       75.2987   1.75134            
222       83.6501   1.90389            
223       19.2282   0.593301           
224       31.9716   1.2196             
225       41.3752   2.19796            
226       64.7875   0.630391           
227       60.4879   1.49103            
228       79.1851   0.888966           
229       29.0034   0.221587           
230       15.8212   0.426856           
231       87.2505   0.935417           
232       26.9375   1.77246            
233       37.8358   0.872986           
234       79.5652   1.62473            
235       38.4066   1.44763            
236       14.6663   0.677557           
237       27.664    0.701752           
238       74.6695   2.02968            
239       41.4878   1.74013            
240       38.9293   0.545846           
241       84.3719   2.30792            
242       42.2552   2.09391            
243       85.8282   1.14854            
244       84.7584   1.37115            
245       78.5591   1.5604             
246       41.6873   1.28545            
247       33.1765   0.302316           
248       40.2163   1.14285            
249       52.7499   1.67852            
250       65.1537   1.26477            
251       33.7497   0.681249           
252       19.3095   2.27705            
253       58.1875   1.32766            
254       31.17     0.759963           
255       17.3801   0.189191           
256       27.2883   0.834283           
257       31.0961   1.66549            
258       78.8106   2.38107            
259       74.5132   0.324875           
260       24.2764   0.579869           
261       23.0407   2.33835            
262       41.4897   1.53178            
263       35.5187   0.81317            
264       14.1845   1.16679            
265       83.251    0.993396           
266       31.5668   2.15347            
267       56.3457   0.528069           
268       41.4553   2.40557            
269       50.2206   1.71549            
270       46.4754   1.35023            
271       20.1685   1.53173            
272       19.6868   1.95288            
273       31.1457   1.74401            
274       43.1677   1.94379            
275       27.1432   1.24659            
276       41.8024   0.989061           
277       12.0149   2.18741            
278       31.1906   1.37216            
279       27.0631   0.525031           
280       70.1567   2.36102            
281       67.4836   2.03994            
282       38.7653   2.16436            
283       17.5781   0.284186           
284       69.7942   0.981444           
285       88.9754   1.49027            
286       31.4885   1.90706            
287       23.5052   2.09577            
288       81.0786   1.04157            
289       58.169    1.0556             
290       44.6911   1.54042            
291       47.1331   0.511214           
292       87.373    0.246241           
293       31.593    1.06994            
294       19.0803   0.409681           
295       31.1981   1.74724            
296       13.1791   1.33525            
297       67.345    0.837973           
298       68.6317   1.18001            
299       43.8838   1.98958            
300       75.484    1.44114            
301       10.5515   2.49894            
302       55.33     0.192597           
303       23.7651   2.24729            
304       49.6421   1.12138            
305       73.1933   1.33037            
306       44.1024   2.3526             
307       63.3744   2.16023            
308       22.218    0.665922           
309       48.2183   0.207519           
310       43.424    0.350145           
311       48.2606   0.367682           
312       42.3012   1.95566            
313       87.5764   0.892963           
314       41.0067   0.496866           
315       19.076    0.234923           
316       19.9801   1.1653             
317       52.7041   1.42375            
318       76.804    0.309556           
319       43.7598   0.966173           
320       58.251    2.13505            
321       70.3803   0.318044           
322       77.6175   0.42645            
323       58.1433   1.41558            
324       40.2565   0.537233           
325       45.1382   0.250855           
326       76.3419   0.564711           
327       73.8201   1.26574            
328       25.049    0.900566           
329       34.5219   1.61148            
330       18.0149   1.64499            
331       83.5032   0.820969           
332       17.4636   1.32414            
333       51.2026   1.00431            
334       15.7834   0.849075           
335       45.7792   1.92948            
336       28.3104   0.602327           
337       88.7921   0.818381           
338       19.7033   2.06524            
339       42.4623   0.218762           
340       38.79     1.52952            
341       45.0921   1.30689            
342       51.7772   1.29458            
343       82.5907   2.30703            
344       14.9138   0.754813           
345       72.991    1.25309            
346       79.0139   1.7154             
347       30.5767   2.41749            
348       44.7128   1.25661            
349       55.7054   1.22966            
350       49.4049   1.25476            
351       25.9024   1.89381            
352       32.368    2.37102            
353       37.5184   1.07631            
354       35.7281   1.24107            
355       67.0182   2.34645            
356       21.8336   1.85155            
357       15.1369   0.272718           
358       25.9399   2.4574             
359       23.015    1.16691            
360       15.5246   2.22828            
361       66.4881   1.4568             
362       42.9966   0.861305           
363       63.723    1.0166             
364       41.3985   2.16992            
365       56.7297   1.3213             
366       66.7831   0.861761           
367       25.8791   1.74738            
368       51.6123   1.77066            
369       68.8253   1.89456            
370       49.6902   0.777001           
371       24.99     1.51345            
372       40.2105   1.28219            
373       75.1276   0.358016           
374       41.2495   0.767226           
375       56.5582   1.27366            
376       68.4452   1.5067             
377       30.6517   1.57073            
378       45.57     1.13354            
379       80.8058   0.658416           
380       45.9754   1.87679            
381       39.0896   2.26809            
382       82.5502   2.00402            
383       56.0909   2.1465             
384       27.5712   0.722939           
385       10.0997   2.2916             
386       72.4371   0.698708           
387       39.9043   1.47137            
388       14.1642   1.78587            
389       63.7613   1.56121            
390       29.3548   0.48168            
391       19.9848   0.895623           
392       43.7062   0.532599           
393       53.9743   1.15851            
394       24.8288   0.191381           
395       29.7515   0.147091           
396       24.0217   2.30329            
397       41.1539   2.44521            
398       63.9739   0.466981           
399       42.5377   2.31254            
400       18.7817   1.11107            

[RESERVOIRS]
;ID       Head      Pattern   
R1         50        ;
R2         50        ;
R3         50        ;
R4         50        ;

[TANKS]
;ID       Elev      IniL      MinL      MaxL      Diam      MinV      VolC      

[PIPES]
;ID       Node1     Node2     Len       Diam      Rough     Minor     Status    
1         1         316       615.948   1e-06     130       0         open      
2         1         351       620.854   1e-06     130       0         open      
3         1         356       475.924   1e-06     130       0         open      
4         2         115       635.246   1e-06     130       0         open      
5         2         360       515.617   1e-06     130       0         open      
6         3         260       374.694   1e-06     130       0         open      
7         3         335       473.77    1e-06     130       0         open      
8         4         18        257.883   1e-06     130       0         open      
9         4         112       522.428   1e-06     130       0         open      
10        4         331       335.407   1e-06     130       0         open      
11        5         183       370.701   1e-06     130       0         open      
12        6         230       473.06    1e-06     130       0         open      
13        6         332       260.892   1e-06     130       0         open      
14        7         30        271.203   1e-06     130       0         open      
15        7         120       723.477   1e-06     130       0         open      
16        8         140       290.849   1e-06     130       0         open      
17        8         208       409.319   1e-06     130       0         open      
18        9         201       523.473   1e-06     130       0         open      
19        9         259       796.431   1e-06     130       0         open      
20        10        145       342.869   1e-06     130       0         open      
21        11        286       593.126   1e-06     130       0         open      
22        11        312       340.214   1e-06     130       0         open      
23        11        385       291.768   1e-06     130       0         open      
24        12        140       388.822   1e-06     130       0         open      
25        13        186       477.658   1e-06     130       0         open      
26        14        325       388.354   1e-06     130       0         open      
27        14        362       398.39    1e-06     130       0         open      
28        15        45        268.058   1e-06     130       0         open      
29        15        78        297.575   1e-06     130       0         open      
30        15        179       554.8     1e-06     130       0         open      
31        16        76        549.903   1e-06     130       0         open      
32        16        143       364.826   1e-06     130       0         open      
33        16        290       729.933   1e-06     130       0         open      
34        17        66        518.961   1e-06     130       0         open      
35        17        90        285.026   1e-06     130       0         open      
36        17        268       358.982   1e-06     130       0         open      
37        18        71        399.535   1e-06     130       0         open      
38        19        196       410.581   1e-06     130       0         open      
39        19        232       346.576   1e-06     130       0         open      
40        20        42        281.006   1e-06     130       0         open      
41        20        49        360.474   1e-06     130       0         open      
42        20        152       311.145   1e-06     130       0         open      
43        21        197       642.345   1e-06     130       0         open      
44        21        311       333.198   1e-06     130       0         open      
45        22        171       477.263   1e-06     130       0         open      
46        22        204       327.534   1e-06     130       0         open      
47        22        358       334.195   1e-06     130       0         open      
48        23        70        398.45    1e-06     130       0         open      
49        23        111       551.347   1e-06     130       0         open      
50        24        223       393.449   1e-06     130       0         open      
51        24        295       450.268   1e-06     130       0         open      
52        25        175       367.812   1e-06     130       0         open      
53        25        236       357.862   1e-06     130       0         open      
54        25        385       261.097   1e-06     130       0         open      
55        26        129       253.77    1e-06     130       0         open      
56        26        225       259.126   1e-06     130       0         open      
57        26        350       270.794   1e-06     130       0         open      
58        27        29        386.884   1e-06     130       0         open      
59        27        193       367.185   1e-06     130       0         open      
60        28        269       505.431   1e-06     130       0         open      
61        28        372       270.086   1e-06     130       0         open      
62        30        269       413.315   1e-06     130       0         open      
63        31        248       539.588   1e-06     130       0         open      
64        32        51        414.018   1e-06     130       0         open      
65        32        77        653.549   1e-06     130       0         open      
66        32        131       320.149   1e-06     130       0         open      
67        33        158       330.191   1e-06     130       0         open      
68        33        325       559.247   1e-06     130       0         open      
69        34        118       565.049   1e-06     130       0         open      
70        34        178       464.251   1e-06     130       0         open      
71        34        341       507.402   1e-06     130       0         open      
72        35        170       332.754   1e-06     130       0         open      
73        36        188       348.642   1e-06     130       0         open      
74        36        228       400.121   1e-06     130       0         open      
75        36        241       393.954   1e-06     130       0         open      
76        37        341       466.944   1e-06     130       0         open      
77        38        231       542.37    1e-06     130       0         open      
78        38        366       353.19    1e-06     130       0         open      
79        39        212       306.038   1e-06     130       0         open      
80        39        364       393.538   1e-06     130       0         open      
81        40        238       492.302   1e-06     130       0         open      
82        40        268       250.155   1e-06     130       0         open      
83        41        137       493.053   1e-06     130       0         open      
84        41        226       373.174   1e-06     130       0         open      
85        42        68        293.019   1e-06     130       0         open      
86        43        107       473.747   1e-06     130       0         open      
87        44        323       446.934   1e-06     130       0         open      
88        44        398       302.666   1e-06     130       0         open      
89        45        339       423.616   1e-06     130       0         open      
90        46        101       317.553   1e-06     130       0         open      
91        46        288       282.413   1e-06     130       0         open      
92        47        82        770.936   1e-06     130       0         open      
93        47        374       564.522   1e-06     130       0         open      
94        48        292       525.462   1e-06     130       0         open      
95        48        327       385.589   1e-06     130       0         open      
96        49        103       263.385   1e-06     130       0         open      
97        50        255       416.951   1e-06     130       0         open      
98        50        332       395.986   1e-06     130       0         open      
99        51        242       473.157   1e-06     130       0         open      
100       52        79        388.864   1e-06     130       0         open      
101       52        392       331.901   1e-06     130       0         open      
102       53        139       328.83    1e-06     130       0         open      
103       53        258       296.729   1e-06     130       0         open      
104       54        122       340.034   1e-06     130       0         open      
105       54        294       546.731   1e-06     130       0         open      
106       55        224       571.438   1e-06     130       0         open      
107       55        261       346.643   1e-06     130       0         open      
108       56        60        272.38    1e-06     130       0         open      
109       56        262       343.919   1e-06     130       0         open      
110       57        170       276.631   1e-06     130       0         open      
111       57        214       533.013   1e-06     130       0         open      
112       58        154       422.144   1e-06     130       0         open      
113       58        319       391.142   1e-06     130       0         open      
114       59        91        306.002   1e-06     130       0         open      
115       59        177       448.379   1e-06     130       0         open      
116       59        297       340.581   1e-06     130       0         open      
117       60        90        360.978   1e-06     130       0         open      
118       60        187       362.536   1e-06     130       0         open      
119       61        77        582.896   1e-06     130       0         open      
120       61        378       396.902   1e-06     130       0         open      
121       62        211       580.968   1e-06     130       0         open      
122       63        80        608.215   1e-06     130       0         open      
123       64        161       351.798   1e-06     130       0         open      
124       64        399       324.7     1e-06     130       0         open      
125       65        215       326.63    1e-06     130       0         open      
126       65        294       429.557   1e-06     130       0         open      
127       66        190       371.319   1e-06     130       0         open      
128       67        371       293.852   1e-06     130       0         open      
129       67        385       347.04    1e-06     130       0         open      
130       68        362       318.247   1e-06     130       0         open      
131       69        75        546.088   1e-06     130       0         open      
132       69        271       579.489   1e-06     130       0         open      
133       69        278       313.131   1e-06     130       0         open      
134       70        106       421.929   1e-06     130       0         open      
135       71        198       306.179   1e-06     130       0         open      
136       72        140       395.772   1e-06     130       0         open      
137       72        288       437.535   1e-06     130       0         open      
138       73        160       463.629   1e-06     130       0         open      
139       73        270       529.807   1e-06     130       0         open      
140       73        348       751.219   1e-06     130       0         open      
141       74        262       335.056   1e-06     130       0         open      
142       76        153       630.492   1e-06     130       0         open      
143       76        302       264.075   1e-06     130       0         open      
144       77        100       527.442   1e-06     130       0         open      
145       78        261       387.31    1e-06     130       0         open      
146       79        232       554.281   1e-06     130       0         open      
147       79        389       307.155   1e-06     130       0         open      
148       80        85        426.947   1e-06     130       0         open      
149       80        189       370.164   1e-06     130       0         open      
150       81        131       409.056   1e-06     130       0         open      
151       81        233       513.382   1e-06     130       0         open      
152       81        384       305.078   1e-06     130       0         open      
153       82        213       559.832   1e-06     130       0         open      
154       82        374       504.365   1e-06     130       0         open      
155       83        340       254.674   1e-06     130       0         open      
156       84        314       375.684   1e-06     130       0         open      
157       84        335       292.745   1e-06     130       0         open      
158       85        267       428.968   1e-06     130       0         open      
159       85        375       413.85    1e-06     130       0         open      
160       86        129       492.779   1e-06     130       0         open      
161       86        367       388.672   1e-06     130       0         open      
162       87        150       297.584   1e-06     130       0         open      
163       87        352       460.166   1e-06     130       0         open      
164       88        114       435.425   1e-06     130       0         open      
165       88        222       323.797   1e-06     130       0         open      
166       89        243       312.46    1e-06     130       0         open      
167       89        326       496.347   1e-06     130       0         open      
168       91        107       321.355   1e-06     130       0         open      