[TITLE]

[JUNCTIONS]
;ID       Elev      Demand    Pattern   
1         48.9091   2.35823            
2         38.1347   0.353347           
3         71.2781   1.83724            
4         16.7108   0.463091           
5         78.7419   0.356624           
6         82.5574   0.469835           
7         80.9103   1.05921            
8         56.2034   2.22287            
9         60.5407   0.703089           
10        56.4676   1.76434            
11        85.4005   1.29461            
12        62.8564   1.08099            
13        70.5262   0.20497            
14        69.0135   1.86308            
15        87.2516   1.88219            
16        72.3266   0.834102           
17        53.3366   0.987235           
18        77.6321   0.417633           
19        55.7437   2.4614             
20        56.3466   1.60304            
21        84.8072   2.41728            
22        81.5875   0.863241           
23        71.58     2.36501            
24        71.5085   0.470013           
25        75.0212   0.986394           
26        70.9794   0.503007           
27        59.0531   1.96237            
28        20.6601   0.917109           
29        69.8748   0.828172           
30        16.1378   1.28778            
31        75.437    1.13755            
32        66.5381   2.15078            
33        52.8909   0.65693            
34        21.0573   0.734867           
35        62.5469   0.408163           
36        18.6639   1.20905            
37        30.0093   2.15558            
38        72.2607   1.77729            
39        34.3365   1.88436            
40        32.7593   1.18748            
41        59.463    2.10204            
42        36.0771   2.15689            
43        73.1418   1.09376            
44        70.5107   0.509448           
45        22.4776   2.32317            
46        16.6656   1.78666            
47        63.4723   1.56104            
48        31.6053   0.790613           
49        62.4479   0.354653           
50        27.0892   2.23744            
51        55.3208   1.44164            
52        40.4062   1.18615            
53        46.8177   0.847664           
54        68.1086   1.16991            
55        46.3212   0.389859           
56        36.9956   0.829207           
57        63.3757   1.81762            
58        78.029    0.207368           
59        32.7072   0.435297           
60        87.9696   2.03674            
61        69.6589   0.680305           
62        36.8411   0.427026           
63        66.2196   0.256936           
64        70.0404   1.63951            
65        58.5835   0.81332            
66        46.3865   0.645902           
67        56.6933   0.280227           
68        42.554    1.8105             
69        85.5502   0.514694           
70        49.2446   1.29782            
71        32.1506   1.32644            
72        39.9456   1.1864             
73        75.136    1.18788            
74        26.2485   2.33159            
75        32.5224   0.833762           
76        42.5733   1.74276            
77        78.3392   1.27218            
78        36.0368   0.498535           
79        63.7717   0.700895           
80        67.6942   1.54428            
81        59.5437   1.49836            
82        67.6611   0.735868           
83        66.4515   0.188888           
84        62.5554   1.01744            
85        29.3458   0.207215           
86        79.5276   0.682985           
87        74.2166   0.565326           
88        44.0284   1.51422            
89        25.3923   1.37423            
90        63.2921   1.05639            
91        77.2032   2.20386            
92        76.2537   1.14234            
93        75.3776   1.9729             
94        76.7923   2.19704            
95        23.0784   1.07963            
96        65.8356   1.36335            
97        22.0297   1.57708            
98        78.6887   0.510581           
99        72.5204   0.518548           
100       40.953    2.07871            
101       72.0301   0.435021           
102       33.5098   2.4257             
103       57.1157   1.56114            
104       68.5497   1.95354            
105       79.4032   1.73108            
106       67.8379   0.701874           
107       16.4094   1.48156            
108       41.7623   1.7228             
109       36.3045   2.30086            
110       60.9165   2.18445            
111       39.0657   0.589555           
112       53.4956   2.24882            
113       62.3526   0.92161            
114       82.1711   1.987              
115       45.9793   1.50174            
116       31.6694   0.858234           
117       15.4701   1.68957            
118       77.6198   1.6113             
119       72.2444   1.88065            
120       36.712    0.257411           
121       48.558    2.36967            
122       84.7145   1.49828            
123       78.1282   2.22214            
124       68.7402   1.54127            
125       87.6246   1.72785            
126       24.8747   2.36318            
127       69.3599   0.199337           
128       71.5389   1.87686            
129       58.6899   1.51466            
130       48.8693   1.71176            
131       82.1723   1.46745            
132       49.0563   2.46899            
133       80.2682   1.2586             
134       51.5385   0.171977           
135       86.7956   1.48144            
136       79.8605   0.803653           
137       59.136    2.03122            
138       16.5749   0.450863           
139       78.4962   1.33982            
140       38.9535   2.09972            
141       68.2957   2.07727            
142       80.059    1.96931            
143       43.8719   1.43215            
144       57.8211   2.14594            
145       55.6215   2.28879            
146       71.6787   2.08847            
147       52.5609   1.66637            
148       79.1826   1.2077             
149       47.9024   1.0937             
150       48.2269   0.956757           
151       61.3382   2.15936            
152       64.9829   0.216511           
153       72.6148   2.0869             
154       67.5      1.35042            
155       63.7024   1.52836            
156       45.6597   1.20359            
157       13.83     1.95069            
158       25.5021   1.9458             
159       53.2266   2.10711            
160       26.2074   1.82235            
161       48.5855   0.241287           
162       83.2526   2.33858            
163       72.6394   0.160316           
164       52.1675   1.52023            
165       78.5742   2.21916            
166       66.4937   1.97818            
167       21.4584   0.177709           
168       76.1481   1.69043            
169       56.5295   2.26374            
170       40.0328   0.95404            
171       66.6165   0.168775           
172       62.2354   0.188877           
173       21.857    0.166075           
174       49.0424   0.557385           
175       49.592    1.71485            
176       65.1932   1.10137            
177       60.3322   0.504937           
178       14.5816   1.98592            
179       73.0966   0.674089           
180       66.417    0.152623           
181       33.8256   1.11882            
182       17.9744   1.06982            
183       58.4135   2.00205            
184       86.4039   0.215404           
185       51.8712   1.97491            
186       69.5774   1.46768            
187       53.5684   0.780999           
188       25.8875   0.713726           
189       75.324    2.09625            
190       57.5979   0.244656           
191       89.7642   0.340532           
192       33.7674   0.596133           
193       56.043    1.59501            
194       47.5746   0.56101            
195       68.441    2.25364            
196       78.9307   0.480439           
197       23.6793   0.33711            
198       73.4112   0.757436           
199       67.9028   2.27315            
200       77.4967   1.78877            
201       72.2356   0.809464           
202       25.6885   0.542102           
203       21.5749   2.49571            
204       48.1669   1.86036            
205       74.3274   1.69769            
206       45.8839   1.5018             
207       34.6956   1.03755            
208       43.429    1.06552            
209       63.8579   1.60102            
210       59.5554   1.80001            
211       64.7495   0.346582           
212       77.9202   2.02396            
213       85.4979   0.14554            
214       83.4196   2.40793            
215       31.5492   1.5905             
216       88.675    1.35878            
217       82.1619   1.02471            
218       81.236    0.954185           
219       74.1937   2.07761            
220       83.8912   1.76288            
221       70.5136   0.69358            
222       73.331    0.694034           
223       19.2966   0.899027           
224       34.5443   1.36794            
225       11.5868   0.633429           
226       77.1649   1.63291            
227       57.7571   1.80287            
228       71.0092   1.583              
229       68.0645   0.591785           
230       41.1971   1.09142            
231       81.0648   1.19003            
232       52.3336   1.37771            
233       73.0161   1.80895            
234       86.2419   1.49163            
235       66.7247   1.69214            
236       17.6397   2.31465            
237       30.8596   0.280781           
238       81.6419   1.52526            
239       78.1679   0.844777           
240       55.0205   0.320067           
241       14.2949   2.08854            
242       47.7436   2.16151            
243       29.1762   0.314812           
244       20.3294   0.835308           
245       81.1211   1.15217            
246       23.3727   0.214742           
247       41.3787   2.1665             
248       37.0372   0.50902            
249       34.3495   1.0081             
250       68.4972   1.5284             
251       67.5491   0.713931           
252       15.5211   2.4673             
253       55.4574   0.151719           
254       55.361    1.69599            
255       54.1121   1.60184            
256       25.283    1.32186            
257       12.436    1.90397            
258       37.803    0.678704           
259       14.5468   1.71566            
260       30.2201   1.1853             
261       54.7995   0.349078           
262       66.4757   1.10921            
263       30.0948   1.89287            
264       67.8051   1.38857            
265       66.0063   2.19424            
266       70.2487   1.18928            
267       79.6653   0.59883            
268       69.188    0.579534           
269       78.9111   1.36553            
270       74.7885   2.13993            
271       71.3123   2.4647             
272       58.6176   1.23234            
273       76.3836   1.58628            
274       20.3121   2.12167            
275       50.6396   2.254              
276       24.8751   1.10449            
277       20.1673   1.77661            
278       67.2205   2.31098            
279       78.89     0.979981           
280       50.0322   0.363437           
281       51.6435   1.01119            
282       63.4287   1.48217            
283       46.3222   1.72152            
284       12.5474   0.281616           
285       72.6168   2.11331            
286       25.0961   1.0032             
287       75.0312   1.42094            
288       33.4354   1.63293            
289       21.8065   1.42561            
290       37.0207   1.09233            
291       73.6144   1.78652            
292       86.367    1.47444            
293       89.6499   0.832086           
294       61.2115   1.61154            
295       47.9484   0.926746           
296       63.9769   2.16556            
297       59.9653   2.28671            
298       76.6619   1.70579            
299       48.5885   2.34896            
300       88.285    1.31848            
301       14.8772   0.754148           
302       66.7886   1.99437            
303       72.2053   1.86151            
304       63.2533   1.1721             
305       79.7778   0.762723           
306       67.3362   0.197195           
307       78.1496   0.996013           
308       56.1285   1.38108            
309       80.2445   1.02495            
310       35.0327   2.01948            
311       34.0228   2.44502            
312       80.2404   1.51878            
313       70.9111   0.247489           
314       39.2915   1.69649            
315       20.563    1.20805            
316       64.3627   2.17235            
317       46.992    2.01113            
318       41.9546   1.82138            
319       61.1459   0.298248           
320       81.9063   1.8381             
321       25.0291   0.528808           
322       31.7767   1.31574            
323       26.3913   0.159398           
324       47.3002   0.431042           
325       70.0407   1.77057            
326       63.5038   1.94815            
327       68.2747   0.424766           
328       25.465    1.44696            
329       35.4153   1.0069             
330       44.401    1.79215            
331       41.5235   2.38114            
332       19.3283   0.990116           
333       16.7681   2.38957            
334       82.907    2.43966            
335       61.1687   1.98872            
336       21.5377   0.593171           
337       74.5762   0.821312           
338       68.2005   1.39811            
339       40.4527   1.61759            
340       87.6143   0.745043           
341       39.7984   0.594028           
342       18.4675   0.705901           
343       78.7154   2.20993            
344       27.9027   1.54186            
345       65.7205   1.61363            
346       25.0277   2.26275            
347       29.4069   1.37663            
348       34.7278   1.47846            
349       60.6361   0.373005           
350       62.4892   1.56816            
351       15.6744   2.25892            
352       51.4968   1.45968            
353       73.6687   2.33428            
354       75.1171   0.456482           
355       80.0739   2.3954             
356       80.1622   0.840456           
357       81.2464   0.753444           
358       85.3238   1.32268            
359       70.5491   2.22591            
360       79.7833   0.61899            
361       83.1147   1.77668            
362       23.5447   1.88153            
363       79.8219   0.709471           
364       73.8356   0.31189            
365       61.3234   1.81442            
366       67.5042   0.815075           
367       17.722    0.103505           
368       19.7838   0.875743           
369       11.3276   2.10725            
370       56.9891   1.66388            
371       59.8417   1.03553            
372       81.7325   1.11432            
373       37.5505   2.48641            
374       80.9084   0.700191           
375       41.7441   1.81595            
376       54.6554   0.380859           
377       59.4162   0.420491           
378       48.437    0.252952           
379       82.1066   1.77968            
380       86.932    0.41959            
381       84.7727   1.63293            
382       73.4701   1.30464            
383       49.616    2.16143            
384       60.2698   1.19845            
385       84.6553   0.178066           
386       59.5796   2.33101            
387       62.4228   0.249996           
388       67.4979   0.228203           
389       88.7469   1.29539            
390       85.9272   0.462105           
391       85.2754   0.321094           
392       53.5113   2.32066            
393       76.9951   2.28679            
394       77.8177   1.65074            
395       33.5768   2.13624            
396       64.238    0.273292           
397       27.8356   0.838237           
398       87.1385   2.22035            
399       68.8548   1.50272            
400       83.8428   1.09925            
401       65.3237   0.604798           
402       83.5231   1.47985            
403       52.824    0.386698           
404       55.6395   1.74546            
405       20.9043   0.844353           
406       85.5861   0.821603           
407       17.6913   0.146982           
408       81.0612   1.10079            
409       87.0112   0.278576           
410       47.7122   0.123531           
411       76.1112   1.81534            
412       60.2606   2.20072            
413       39.4366   2.34968            
414       42.0459   1.98365            
415       62.1513   0.537249           
416       78.4495   0.13584            
417       17.0639   1.34318            
418       66.235    1.55404            
419       81.5212   1.29837            
420       53.849    1.32706            
421       46.5683   1.22014            
422       63.1546   0.449165           
423       63.4972   1.57585            
424       49.2846   0.870088           
425       72.854    1.03228            
426       85.9408   1.01349            
427       47.927    1.47868            
428       69.545    0.852499           
429       66.1462   1.91479            
430       61.8417   1.40766            
431       71.1489   2.14697            
432       86.5386   2.14756            
433       81.7842   1.20557            
434       61.4557   0.484653           
435       73.2764   1.78567            
436       22.5559   2.19084            
437       80.0551   0.578986           
438       79.9583   2.38203            
439       43.8016   2.24675            
440       29.977    0.690393           
441       28.6307   2.44012            
442       72.5487   2.4681             
443       77.3276   1.97802            
444       78.4474   0.718406           
445       15.9403   0.303808           
446       85.5768   0.433202           
447       72.1212   0.553556           
448       70.1496   0.613719           
449       46.3023   0.442704           
450       66.6182   1.68889            
451       56.7751   1.62485            
452       73.8946   1.48204            
453       56.9068   1.09558            
454       70.3575   0.138679           
455       83.4815   0.140863           
456       62.6726   1.16411            
457       38.5803   1.74435            
458       82.3365   1.36878            
459       33.2307   0.820001           
460       19.3988   2.49989            
461       83.0529   2.30524            
462       68.972    0.103256           
463       77.6755   0.403782           
464       82.4884   1.47245            
465       70.3483   0.91611            
466       83.2329   0.227254           
467       83.2069   1.46706            
468       16.496    0.511693           
469       68.7271   0.915014           
470       55.3212   2.45687            
471       33.2788   0.162926           
472       10.7609   0.235988           
473       89.6907   0.514763           
474       34.9216   1.05951            
475       37.0128   1.32097            
476       38.877    1.55316            
477       40.0774   0.578288           
478       42.9149   2.02424            
479       38.6143   2.26402            
480       53.6432   1.42843            
481       42.9243   1.77869            
482       86.9547   0.323657           
483       55.8317   0.272276           
484       72.4373   1.8437             
485       78.1229   1.42427            
486       49.5713   1.58571            
487       44.7266   2.09927            
488       74.4635   0.597237           
489       41.3653   1.52325            
490       74.8022   1.42774            
491       18.2055   2.0061             
492       25.6128   1.19517            
493       52.6184   0.542344           
494       31.4645   1.26693            
495       59.9379   2.22502            
496       61.93     2.22966            
497       66.6264   1.99342            
498       40.7189   0.752684           
499       58.7694   2.23653            
500       80.4747   0.678816           

[RESERVOIRS]
;ID       Head      Pattern   
R1         50        ;
R2         50        ;
R3         50        ;
R4         50        ;
R5         50        ;

[TANKS]
;ID       Elev      IniL      MinL      MaxL      Diam      MinV      VolC      

[PIPES]
;ID       Node1     Node2     Len       Diam      Rough     Minor     Status    
1         1         371       543.753   1e-06     130       0         open      
2         2         175       461.159   1e-06     130       0         open      
3         2         314       749.085   1e-06     130       0         open      
4         2         436       812.12    1e-06     130       0         open      
5         3         177       564.621   1e-06     130       0         open      
6         3         240       507.126   1e-06     130       0         open      
7         4         107       427.719   1e-06     130       0         open      
8         4         369       442.625   1e-06     130       0         open      
9         5         416       374.604   1e-06     130       0         open      
10        6         63        415.659   1e-06     130       0         open      
11        6         293       476.036   1e-06     130       0         open      
12        7         82        624.624   1e-06     130       0         open      
13        7         125       456.115   1e-06     130       0         open      
14        8         349       566.431   1e-06     130       0         open      
15        9         150       398.952   1e-06     130       0         open      
16        9         325       699.02    1e-06     130       0         open      
17        9         330       826.543   1e-06     130       0         open      
18        9         496       1065.17   1e-06     130       0         open      
19        10        172       529.395   1e-06     130       0         open      
20        10        275       395.919   1e-06     130       0         open      
21        11        307       739.187   1e-06     130       0         open      
22        11        466       323.974   1e-06     130       0         open      
23        12        91        748.782   1e-06     130       0         open      
24        12        196       714.856   1e-06     130       0         open      
25        12        447       368.302   1e-06     130       0         open      
26        13        81        577.066   1e-06     130       0         open      
27        13        335       629.24    1e-06     130       0         open      
28        14        326       490.924   1e-06     130       0         open      
29        14        383       312.194   1e-06     130       0         open      
30        15        124       583.864   1e-06     130       0         open      
31        15        398       651.202   1e-06     130       0         open      
32        15        426       538.731   1e-06     130       0         open      
33        16        189       863.081   1e-06     130       0         open      
34        16        306       978.536   1e-06     130       0         open      
35        16        392       818.592   1e-06     130       0         open      
36        17        129       676.471   1e-06     130       0         open      
37        17        193       437.401   1e-06     130       0         open      
38        18        32        650.244   1e-06     130       0         open      
39        18        98        481.65    1e-06     130       0         open      
40        19        183       368.495   1e-06     130       0         open      
41        19        251       304.992   1e-06     130       0         open      
42        20        266       739.29    1e-06     130       0         open      
43        20        296       577.631   1e-06     130       0         open      
44        21        92        321.739   1e-06     130       0         open      
45        21        128       609.045   1e-06     130       0         open      
46        21        380       568.176   1e-06     130       0         open      
47        22        135       1075.22   1e-06     130       0         open      
48        22        209       589.329   1e-06     130       0         open      
49        22        500       568.481   1e-06     130       0         open      
50        23        396       616.017   1e-06     130       0         open      
51        23        409       422.451   1e-06     130       0         open      
52        24        113       774.957   1e-06     130       0         open      
53        24        316       530.683   1e-06     130       0         open      
54        25        119       588.916   1e-06     130       0         open      
55        25        179       393.483   1e-06     130       0         open      
56        25        217       746.523   1e-06     130       0         open      
57        26        94        689.418   1e-06     130       0         open      
58        26        134       619.817   1e-06     130       0         open      
59        26        355       708.246   1e-06     130       0         open      
60        27        151       1007.07   1e-06     130       0         open      
61        27        161       602.965   1e-06     130       0         open      
62        28        40        347.691   1e-06     130       0         open      
63        28        489       741.171   1e-06     130       0         open      
64        29        267       347.526   1e-06     130       0         open      
65        29        404       342.205   1e-06     130       0         open      
66        29        433       698.228   1e-06     130       0         open      
67        30        48        691.457   1e-06     130       0         open      
68        30        236       683.316   1e-06     130       0         open      
69        31        135       341.889   1e-06     130       0         open      
70        31        340       816.705   1e-06     130       0         open      
71        32        295       817.655   1e-06     130       0         open      
72        32        299       706.099   1e-06     130       0         open      
73        33        72        420.295   1e-06     130       0         open      
74        33        299       555.675   1e-06     130       0         open      
75        34        329       372.749   1e-06     130       0         open      
76        34        441       717.971   1e-06     130       0         open      
77        35        189       709.024   1e-06     130       0         open      
78        35        498       689.881   1e-06     130       0         open      
79        36        224       403.52    1e-06     130       0         open      
80        37        367       433.293   1e-06     130       0         open      
81        38        90        642.453   1e-06     130       0         open      
82        38        106       721.064   1e-06     130       0         open      
83        38        228       737.784   1e-06     130       0         open      
84        39        237       437.419   1e-06     130       0         open      
85        39        258       369.759   1e-06     130       0         open      
86        40        45        662.06    1e-06     130       0         open      
87        40        52        761.251   1e-06     130       0         open      
88        41        239       633.079   1e-06     130       0         open      
89        41        272       1015.21   1e-06     130       0         open      
90        41        388       893.118   1e-06     130       0         open      
91        41        444       501.517   1e-06     130       0         open      
92        42        470       318.478   1e-06     130       0         open      
93        43        191       815.419   1e-06     130       0         open      
94        43        285       607.228   1e-06     130       0         open      
95        44        84        362.026   1e-06     130       0         open      
96        44        386       509.534   1e-06     130       0         open      
97        45        244       718.573   1e-06     130       0         open      
98        46        468       315.371   1e-06     130       0         open      
99        47        295       923.45    1e-06     130       0         open      
100       47        415       902.578   1e-06     130       0         open      
101       49        64        600.469   1e-06     130       0         open      
102       49        294       985.908   1e-06     130       0         open      
103       49        303       499.863   1e-06     130       0         open      
104       50        138       326.31    1e-06     130       0         open      
105       51        52        439.751   1e-06     130       0         open      
106       51        248       332.285   1e-06     130       0         open      
107       53        290       440.322   1e-06     130       0         open      
108       53        304       318.373   1e-06     130       0         open      
109       53        498       729.089   1e-06     130       0         open      
110       54        275       330.389   1e-06     130       0         open      
111       54        429       680.035   1e-06     130       0         open      
112       55        290       759.769   1e-06     130       0         open      
113       55        331       376.048   1e-06     130       0         open      
114       56        68        578.015   1e-06     130       0         open      
115       57        408       800.915   1e-06     130       0         open      
116       58        212       766.348   1e-06     130       0         open      
117       58        245       809.571   1e-06     130       0         open      
118       58        265       762.294   1e-06     130       0         open      