[TITLE]

[JUNCTIONS]
;ID       Elev      Demand    Pattern   
1         58.6476   1.41339            
2         55.3936   2.05692            
3         44.4149   1.28932            
4         38.5076   2.43952            
5         47.0616   2.2112             
6         43.9247   2.06659            
7         51.1586   2.11746            
8         41.2896   0.976707           
9         26.5827   2.04312            
10        45.3867   0.182482           
11        30.2435   2.43201            
12        87.4218   1.13834            
13        70.7939   0.707676           
14        26.8711   0.80001            
15        49.3436   0.515407           
16        29.2113   2.06995            
17        68.4346   1.21652            
18        59.0097   0.420647           
19        26.67     1.76065            
20        24.5939   1.03239            
21        34.5023   1.65997            
22        76.4618   1.10319            
23        25.6694   1.98768            
24        53.4115   1.06137            
25        34.8389   2.20354            
26        11.5034   0.302428           
27        31.6439   1.15784            
28        68.7009   2.33665            
29        67.9942   2.26523            
30        58.3133   0.361687           
31        52.0265   1.22591            
32        50.2809   0.561314           
33        37.174    2.35283            
34        20.9232   0.144978           
35        45.6892   0.300252           
36        31.4151   1.07251            
37        62.1904   2.36627            
38        17.0336   0.483063           
39        81.7835   2.25145            
40        73.4162   0.370008           
41        21.2783   1.585              
42        24.3269   1.29369            
43        62.0747   2.33961            
44        24.6574   2.48437            
45        56.6375   0.90151            
46        12.7959   2.48879            
47        25.0866   2.11431            
48        87.4663   2.08574            
49        47.0221   0.494157           
50        63.6364   0.432287           
51        67.9807   1.26429            
52        88.5923   0.742962           
53        65.2114   0.410352           
54        30.933    0.803822           
55        47.4028   0.341912           
56        26.3199   2.21609            
57        61.474    2.08637            
58        82.3949   1.3573             
59        35.3537   1.99977            
60        51.9023   1.78886            
61        56.8947   0.927662           
62        66.8701   0.990216           
63        64.6178   1.88209            
64        69.5825   1.29532            
65        37.2316   1.27966            
66        86.9477   0.934912           
67        43.2174   0.6195             
68        19.3269   0.216809           
69        39.2924   1.60284            
70        65.9712   2.25865            
71        82.5521   2.03613            
72        83.3426   1.88103            
73        89.9656   0.485058           
74        71.6241   1.10148            
75        63.0413   1.61171            
76        65.4615   2.04685            
77        41.7174   1.34193            
78        28.0173   1.10895            
79        72.879    2.0571             
80        54.3339   1.04396            
81        69.0981   1.47845            
82        39.5325   1.95653            
83        73.7353   1.53262            
84        13.0157   2.23769            
85        52.0821   0.890636           
86        49.1805   0.127676           
87        57.6406   1.3096             
88        82.3471   1.60893            
89        50.4516   1.85258            
90        87.7435   1.32263            
91        70.1773   2.14648            
92        87.9397   0.593679           
93        77.3626   0.540239           
94        84.1893   0.805708           
95        36.4727   1.86627            
96        77.5188   1.74967            
97        70.0083   2.14137            
98        42.195    0.13254            
99        33.6901   2.35341            
100       85.0727   0.518759           
101       25.3432   0.479666           
102       64.0567   1.58059            
103       57.743    1.78558            
104       72.0163   1.02597            
105       48.1366   2.24465            
106       69.4852   1.11365            
107       36.3895   0.151548           
108       51.8053   1.20395            
109       78.8218   2.08016            
110       43.1085   0.247057           
111       65.5614   0.910575           
112       16.0962   0.425922           
113       34.1256   2.41082            
114       77.2953   1.13866            
115       29.9164   1.94064            
116       72.6621   0.781691           
117       51.9891   0.437016           
118       75.6472   1.35273            
119       30.5818   1.75347            
120       70.282    0.839251           
121       81.6463   0.234771           
122       43.2073   0.515998           
123       47.3946   2.48278            
124       75.3371   0.879244           
125       57.2478   0.730951           
126       11.9706   0.541562           
127       18.047    1.40028            
128       87.9253   0.299916           
129       51.9364   0.933997           
130       55.0337   2.27962            
131       25.4682   2.09263            
132       33.1282   1.17459            
133       51.9732   1.054              
134       20.5309   0.740582           
135       33.9418   2.48877            
136       30.3594   1.17003            
137       82.9283   0.386206           
138       69.4347   1.80499            
139       75.6346   2.47683            
140       43.4041   1.58945            
141       57.608    1.5391             
142       47.9532   1.70607            
143       27.8647   2.14808            
144       86.5637   1.23382            
145       34.9571   0.325315           
146       64.991    1.5197             
147       11.9863   1.45551            
148       48.6008   1.95683            
149       28.679    1.49587            
150       80.0251   0.785606           
151       58.4765   1.49259            
152       31.0656   1.44572            
153       63.5766   2.03647            
154       52.3254   2.00245            
155       49.6932   1.92492            
156       13.9906   1.12459            
157       71.3001   1.01218            
158       74.3732   1.49403            
159       50.8675   0.927859           
160       59.1641   1.78203            
161       89.5669   1.68219            
162       56.5049   1.33472            
163       41.5338   0.246927           
164       26.634    1.4023             
165       58.3679   1.46429            
166       64.3529   1.60311            
167       39.1842   1.32022            
168       24.6644   2.3071             
169       29.7538   2.24505            
170       24.088    2.38791            
171       43.0034   1.28917            
172       68.6925   0.107656           
173       79.9926   1.90027            
174       14.6226   2.31455            
175       47.8687   1.32802            
176       76.3833   2.37183            
177       80.4172   0.75556            
178       18.2307   0.382925           
179       88.168    1.09891            
180       79.543    2.09513            
181       28.6496   1.78464            
182       68.7643   0.972011           
183       75.3833   2.15927            
184       80.1489   1.95979            
185       26.9958   1.05743            
186       24.6443   0.488589           
187       64.0509   1.2806             
188       16.7198   0.829837           
189       73.8479   1.66563            
190       70.7778   1.6724             
191       89.0967   2.47562            
192       49.1784   2.15576            
193       25.2806   1.14242            
194       31.2715   0.526584           
195       20.2685   1.24658            
196       86.4649   1.43185            
197       18.8083   1.16465            
198       14.3653   1.31899            
199       21.1581   0.666585           
200       83.8954   1.36596            
201       85.1904   0.116112           
202       78.96     1.96671            
203       81.7897   2.03421            
204       79.223    2.03759            
205       72.5176   2.4347             
206       79.5909   0.311737           
207       64.9356   0.718112           
208       60.5512   1.33596            
209       65.8451   0.201383           
210       73.1245   0.659868           
211       50.5066   1.46075            
212       28.0966   0.475155           
213       43.4885   2.47079            
214       35.4078   0.388573           
215       11.4309   0.986098           
216       12.3775   0.101398           
217       30.8142   1.72211            
218       23.6347   2.21582            
219       24.8002   0.30028            
220       12.0517   2.15893            
221       53.3577   0.970339           
222       11.7211   0.593405           
223       69.7036   1.73236            
224       31.7561   0.484425           
225       40.0414   0.781353           
226       63.2196   1.71581            
227       54.284    1.91686            
228       59.8578   2.00447            
229       67.1092   0.627438           
230       30.329    0.105801           
231       75.7941   1.41851            
232       61.1995   1.55826            
233       75.7531   0.229629           
234       25.3776   0.536234           
235       28.6222   1.6454             
236       50.7561   1.99577            
237       40.1777   1.95974            
238       65.929    1.38239            
239       60.2123   1.38659            
240       12.2555   2.431              
241       41.7088   1.095              
242       46.7823   2.0816             
243       83.818    1.22131            
244       31.7564   2.32925            
245       41.013    1.03404            
246       36.1502   0.684989           
247       87.3339   1.96761            
248       49.1821   1.38703            
249       53.0344   2.26097            
250       43.7313   1.69696            
251       62.6447   1.44183            
252       22.1121   0.174493           
253       67.314    2.14069            
254       68.4882   0.166421           
255       50.2661   2.31366            
256       85.7696   0.47452            
257       71.1416   1.27196            
258       34.6319   1.33332            
259       39.4776   2.08362            
260       74.1976   2.18763            
261       18.5405   1.96519            
262       89.6992   1.37747            
263       61.3637   0.18998            
264       58.5691   0.574294           
265       38.1322   0.114177           
266       24.6097   2.22862            
267       89.6751   0.546825           
268       25.1487   1.39967            
269       76.7983   0.532726           
270       25.7883   0.435766           
271       36.2298   2.29455            
272       28.0262   2.38502            
273       55.7324   0.120969           
274       57.6764   1.11712            
275       28.7235   0.77996            
276       89.476    0.948288           
277       36.2758   0.326223           
278       78.2064   1.44387            
279       88.9622   0.632097           
280       49.9998   0.60636            
281       37.7649   2.0598             
282       77.4545   0.252915           
283       26.2521   2.19958            
284       75.1893   1.84432            
285       73.9254   0.470066           
286       85.5919   0.934677           
287       30.9598   2.41344            
288       68.2561   2.30052            
289       63.4943   2.46471            
290       22.8897   1.07957            
291       73.874    1.90319            
292       43.7197   1.40951            
293       51.2067   1.17247            
294       84.175    2.33109            
295       52.9184   1.96202            
296       52.2421   0.465833           
297       81.8879   2.30078            
298       64.4925   1.53179            
299       42.6541   2.4535             
300       41.8067   1.6677             
301       21.6621   2.21478            
302       78.9888   0.891734           
303       61.0636   0.751862           
304       20.9833   1.39461            
305       24.4181   2.02295            
306       18.2019   1.93384            
307       18.105    1.17482            
308       47.7221   2.29219            
309       74.1695   0.431051           
310       69.9692   1.24641            
311       53.8045   0.633345           
312       45.1094   0.891343           
313       80.2361   1.20844            
314       75.0126   2.37134            
315       54.7824   2.22271            
316       73.8837   1.39587            
317       43.2466   1.29033            
318       70.0774   0.607716           
319       83.7341   1.5512             
320       45.6642   2.22593            
321       53.4573   0.293308           
322       64.4728   0.899956           
323       22.9705   0.910921           
324       27.4311   1.31902            
325       46.779    1.63986            
326       86.8      1.42923            
327       33.1076   1.9164             
328       54.2776   1.99883            
329       48.1497   0.950447           
330       28.8487   1.32257            
331       62.5058   1.62184            
332       78.5374   1.3027             
333       85.7066   1.22819            
334       51.9602   0.827142           
335       63.7134   0.427107           
336       46.0393   1.1719             
337       23.4933   1.75131            
338       45.9297   1.98815            
339       57.4883   1.99938            
340       67.7665   0.311583           
341       64.5044   1.46338            
342       47.1709   0.637722           
343       77.0345   1.03324            
344       30.2594   0.187961           
345       62.1817   0.643021           
346       38.3837   1.12302            
347       19.8578   1.39999            
348       46.6835   2.13541            
349       24.3094   2.36203            
350       70.8047   0.896831           
351       26.7339   1.86597            
352       47.6151   0.119425           
353       60.6177   0.914967           
354       62.2151   0.569747           
355       46.253    0.352974           
356       70.7505   0.156671           
357       76.2594   0.350445           
358       82.7488   0.843941           
359       61.3118   1.16858            
360       62.0628   0.179808           
361       45.7951   1.36373            
362       11.2781   0.814945           
363       85.3042   2.04598            
364       63.7224   1.92997            
365       70.5183   0.746999           
366       35.0304   2.39517            
367       61.7897   0.138811           
368       29.4582   2.47677            
369       31.7845   2.43181            
370       85.3553   1.69381            
371       74.8091   1.26958            
372       88.9882   0.357607           
373       87.1073   0.436515           
374       30.9348   0.595017           
375       65.5921   0.33198            
376       71.274    0.501525           
377       17.6993   2.18541            
378       67.4456   1.35888            
379       60.7919   0.803928           
380       55.0745   1.43494            
381       86.6687   1.23924            
382       61.9766   0.528837           
383       79.2961   1.73465            
384       26.0184   2.30203            
385       80.7862   1.54288            
386       73.7335   1.74475            
387       53.9081   0.403016           
388       65.4946   2.05714            
389       50.1768   0.854708           
390       62.4081   1.9235             
391       41.0788   0.782946           
392       49.5449   0.741167           
393       78.9352   0.171669           
394       65.7354   0.118682           
395       65.4033   1.54931            
396       52.5215   0.651569           
397       36.5443   0.115933           
398       45.4868   0.661562           
399       62.4921   0.992572           
400       72.6014   1.14949            
401       63.4879   1.18306            
402       70.9689   0.433734           
403       30.4705   1.88091            
404       23.6693   1.39163            
405       35.9734   1.56509            
406       56.9484   1.72111            
407       89.88     0.891204           
408       51.498    2.17355            
409       66.9656   2.11819            
410       89.445    0.454617           
411       41.4096   0.519137           
412       11.6568   2.08234            
413       35.5093   1.08187            
414       44.496    1.28019            
415       24.8873   2.16684            
416       81.2338   1.84734            
417       33.7751   1.07239            
418       41.2081   1.75869            
419       35.9869   0.376514           
420       47.3707   2.35915            
421       79.8478   2.06975            
422       65.3632   0.292564           
423       73.6353   0.384731           
424       20.7267   0.941472           
425       52.1779   2.10825            
426       72.5327   1.84533            
427       13.8966   0.4157             
428       39.2517   1.0475             
429       47.9925   1.72327            
430       61.0839   1.70949            
431       36.3894   0.89314            
432       78.2246   0.406044           
433       62.2048   0.496168           
434       72.7989   0.837637           
435       61.7267   0.703275           
436       51.8317   1.20854            
437       84.1312   0.398129           
438       10.7953   1.63061            
439       73.7778   2.24342            
440       59.558    0.569861           
441       41.1433   0.315179           
442       81.7193   2.37503            
443       71.5942   0.889244           
444       87.8663   2.257              
445       32.7446   1.10446            
446       46.8591   1.49512            
447       15.4763   0.136176           
448       78.5517   1.22934            
449       62.4874   1.1912             
450       44.4793   2.05388            
451       35.7176   1.87849            
452       43.6955   1.55002            
453       76.689    0.427193           
454       47.407    2.01228            
455       70.5456   2.06739            
456       23.1315   0.70142            
457       60.7765   2.03557            
458       28.4673   2.18082            
459       62.0923   1.08322            
460       53.6893   0.288521           
461       37.4561   0.752819           
462       42.9742   2.10168            
463       38.4658   0.298835           
464       47.8112   2.16073            
465       30.5448   1.3286             
466       79.1264   1.97269            
467       80.2322   1.51093            
468       57.7874   1.19576            
469       75.6453   0.512015           
470       43.1904   0.567034           
471       80.876    0.191796           
472       30.2873   1.13281            
473       70.921    2.22049            
474       30.689    1.26241            
475       75.1542   1.5233             
476       23.9714   0.66913            
477       21.2382   0.720387           
478       78.2995   0.484186           
479       45.8426   2.33335            
480       43.2905   1.78715            
481       71.0244   0.754411           
482       76.9778   2.28656            
483       58.1192   1.57708            
484       24.2439   0.824352           
485       31.4858   1.81298            
486       54.5739   2.45456            
487       16.8307   1.17606            
488       41.7403   0.869541           
489       32.518    0.675564           
490       37.1541   0.350516           
491       16.2219   1.39598            
492       23.0854   1.42172            
493       64.9261   2.19473            
494       44.3643   2.26203            
495       85.8728   0.824499           
496       19.9699   0.879929           
497       73.3422   1.33342            
498       42.9519   1.38832            
499       85.4987   1.52892            
500       70.6529   1.56052            
501       64.7446   1.71923            
502       41.3123   1.54753            
503       25.5606   0.755377           
504       45.6539   0.362235           
505       10.9698   0.988801           
506       76.5263   2.27678            
507       80.7863   2.14497            
508       31.3282   1.15621            
509       60.0171   1.29192            
510       21.5762   1.21731            
511       76.6091   0.193763           
512       68.9487   2.19751            
513       34.4292   1.32612            
514       63.8474   1.38517            
515       12.0556   2.19217            
516       68.7083   1.90908            
517       71.6505   0.242235           
518       19.4505   0.286807           
519       48.3326   0.65077            
520       87.7316   0.269608           
521       12.1033   0.933496           
522       34.0697   1.88826            
523       20.2675   2.13735            
524       36.3188   0.433529           
525       59.7389   1.40665            
526       76.5341   1.59285            
527       37.2927   1.0636             
528       67.4033   1.27567            
529       79.7366   1.63708            
530       69.939    0.596298           
531       78.1206   0.141684           
532       40.3668   1.52965            
533       40.7457   2.00878            
534       87.0609   1.64497            
535       69.2067   1.86399            
536       89.3653   2.02641            
537       24.266    1.97555            
538       20.7347   1.3596             
539       64.19     0.941735           
540       25.6686   0.167702           
541       24.1709   1.0121             
542       77.2869   0.690771           
543       32.1323   1.91506            
544       75.6141   0.418418           
545       46.2953   0.851252           
546       43.5908   1.27052            
547       33.0861   1.62405            
548       60.6429   0.205999           
549       68.2651   1.05102            
550       29.1352   1.64529            
551       77.2252   0.317754           
552       58.1558   1.21558            
553       40.8249   1.49856            
554       51.5533   2.28335            
555       73.8892   1.86858            
556       22.9898   0.743846           
557       76.9485   1.30358            
558       42.588    1.7897             
559       82.3205   0.847002           
560       47.6746   2.30113            
561       20.4465   0.186604           
562       24.6724   0.63004            
563       44.611    2.48867            
564       26.6088   1.90164            
565       35.0676   0.236951           
566       73.5014   2.16573            
567       44.6317   1.28197            
568       54.7458   1.55913            
569       58.3384   0.220912           
570       45.5928   0.636188           
571       31.8942   0.361326           
572       56.0351   0.777242           
573       76.9986   0.243706           
574       68.818    0.224193           
575       41.6974   0.1733             
576       29.5874   2.13126            
577       33.2873   2.0944             
578       52.4217   1.42776            
579       14.2318   1.9114             
580       44.1309   0.693097           
581       35.1583   1.99878            
582       32.9851   1.07739            
583       24.3785   0.994491           
584       64.6461   2.07859            
585       68.4721   0.377617           
586       42.0868   1.85481            
587       71.353    1.26324            
588       12.0406   1.40322            
589       15.542    2.17859            
590       25.743    1.91479            
591       77.0794   1.76104            
592       19.3386   1.1607             
593       34.1037   0.290621           
594       36.6269   2.09916            
595       43.9318   2.31825            
596       67.1982   1.88934            
597       30.1278   1.67845            
598       16.8981   1.18787            
599       64.8094   2.15725            
600       26.9637   1.36347            

[RESERVOIRS]
;ID       Head      Pattern   
R1         60        ;

[TANKS]
;ID       Elev      IniL      MinL      MaxL      Diam      MinV      VolC      

[PIPES]
;ID       Node1     Node2     Len       Diam      Rough     Minor     Status    
1         1         248       360.257   1e-06     130       0         open      
2         2         386       633.742   1e-06     130       0         open      
3         3         60        986.042   1e-06     130       0         open      
4         3         131       632.473   1e-06     130       0         open      
5         4         567       1068.82   1e-06     130       0         open      
6         5         259       671.799   1e-06     130       0         open      
7         5         490       454.237   1e-06     130       0         open      
8         6         241       510.291   1e-06     130       0         open      
9         6         459       851       1e-06     130       0         open      
10        7         288       523.951   1e-06     130       0         open      
11        7         379       457.223   1e-06     130       0         open      
12        8         95        402.658   1e-06     130       0         open      
13        8         122       560.981   1e-06     130       0         open      
14        8         234       506.975   1e-06     130       0         open      
15        9         292       576.113   1e-06     130       0         open      
16        10        136       932.092   1e-06     130       0         open      
17        10        369       642.037   1e-06     130       0         open      
18        10        465       402.497   1e-06     130       0         open      
19        11        84        813.268   1e-06     130       0         open      
20        11        259       658.259   1e-06     130       0         open      
21        12        531       693.708   1e-06     130       0         open      
22        13        72        397.631   1e-06     130       0         open      
23        14        101       557.332   1e-06     130       0         open      
24        14        188       854.586   1e-06     130       0         open      
25        14        290       724.383   1e-06     130       0         open      
26        15        504       659.217   1e-06     130       0         open      
27        15        576       917.667   1e-06     130       0         open      
28        16        222       766.5     1e-06     130       0         open      
29        16        391       995.55    1e-06     130       0         open      
30        17        202       335.157   1e-06     130       0         open      
31        17        434       413.868   1e-06     130       0         open      
32        18        103       1001.28   1e-06     130       0         open      
33        18        350       359.931   1e-06     130       0         open      
34        19        306       927.744   1e-06     130       0         open      
35        20        450       638.584   1e-06     130       0         open      
36        20        579       770.06    1e-06     130       0         open      
37        21        533       636.988   1e-06     130       0         open      
38        22        97        1056.73   1e-06     130       0         open      
39        22        267       840.817   1e-06     130       0         open      
40        22        335       456.874   1e-06     130       0         open      
41        22        455       477.15    1e-06     130       0         open      
42        23        346       716.891   1e-06     130       0         open      
43        23        351       658.501   1e-06     130       0         open      
44        23        503       439.511   1e-06     130       0         open      
45        24        353       448       1e-06     130       0         open      
46        24        479       1055.04   1e-06     130       0         open      
47        25        134       328.965   1e-06     130       0         open      
48        25        230       1038.75   1e-06     130       0         open      
49        26        218       774.528   1e-06     130       0         open      
50        26        491       811.886   1e-06     130       0         open      
51        27        67        462.27    1e-06     130       0         open      
52        27        523       435.335   1e-06     130       0         open      
53        28        80        448.479   1e-06     130       0         open      
54        29        105       701.339   1e-06     130       0         open      
55        29        453       433.29    1e-06     130       0         open      
56        29        551       451.74    1e-06     130       0         open      
57        30        125       517.854   1e-06     130       0         open      
58        31        232       749.304   1e-06     130       0         open      
59        32        125       755.762   1e-06     130       0         open      
60        32        586       598.742   1e-06     130       0         open      
61        33        36        988.969   1e-06     130       0         open      
62        33        47        327.89    1e-06     130       0         open      
63        33        117       861.418   1e-06     130       0         open      
64        34        199       461.585   1e-06     130       0         open      
65        34        268       865.61    1e-06     130       0         open      
66        34        589       830.189   1e-06     130       0         open      
67        35        414       430.103   1e-06     130       0         open      
68        35        558       691.386   1e-06     130       0         open      
69        36        307       509.528   1e-06     130       0         open      
70        37        61        703.338   1e-06     130       0         open      